%nprocshared=12
%mem=24GB
# opt int=grid=ultrafine M06 gen pseudo=read

Title

-1 1
Ir            0.01040000000001     0.07729999999997     -0.41560000000000
C            -0.06619999999992     -0.70669999999970     -2.50150000000011
C            0.31959999999983     0.63820000000003     -2.61259999999999
H            1.39010000000003     0.83399999999996     -2.70479999999999
C            -0.52180000000002     1.65130000000016     -3.34879999999999
C            -0.14450000000017     3.11449999999999     -3.14619999999980
H            -1.57969999999998     1.49469999999999     -3.11830000000004
H            -0.42399999999996     1.42509999999999     -4.42620000000028
H            -0.98630000000067     3.75680000000027     -3.44990000000006
H            0.01140000000002     3.30590000000002     -2.07189999999991
H            -0.05020000000001     1.75320000000000     -0.30149999999998
H            0.06350000000002     -1.56709999999997     -0.13260000000003
H            -1.07649999999982     -0.98609999999990     -2.80570000000001
H            0.65899999999999     -1.50870000000012     -2.61849999999998
C            1.09019999999996     3.53879999999979     -3.93219999999975
H            1.92520000000014     2.85540000000004     -3.71549999999993
H            0.88499999999989     3.42580000000005     -5.00780000000002
C            1.50759999999984     4.96780000000006     -3.62950000000009
H            2.38170000000009     5.27549999999985     -4.21369999999997
H            0.69380000000010     5.67000000000005     -3.85139999999983
H            1.75700000000010     5.08519999999999     -2.56679999999999
P            2.04599999999980     0.00000000000012     -0.00000000000000
N            -0.04930000000019     0.00000000000005     2.23150000000006
N            -1.29970775584002     0.16173220086133     2.59458888435489
N            -3.49406872036711     0.47581193140684     2.17969500190213
H            -3.50190616372768     0.65572787425364     3.17478553034697
C            2.90001040233549     0.12685786755420     1.63085627891125
C            2.28987775439896     0.04525572139120     2.89158531152357
C            3.10726587486858     -0.08466891165966     4.02893444843443
H            2.63322282743195     -0.13872409671152     4.99881659489094
C            4.47468005715922     -0.18194167557820     3.93068226986830
H            5.07678936581329     -0.31015787332469     4.81774787445827
C            5.07341841508791     -0.13476870751393     2.67837726213696
H            6.14377174463308     -0.23385926489288     2.57785928104752
C            4.28934803026131     0.01497606684771     1.55415213196259
H            4.76578190225971     0.02385110396669     0.58438704474016
C            0.87725713086258     0.09527379608687     3.12149582624573
H            0.55947198545200     0.22843716591510     4.15576990253661
C            -2.24533223577948     0.25343144184281     1.69580423414819
C            -4.52362201384342     1.14166609817937     1.42160775468430
H            -4.35975917109478     2.22504591647609     1.38300195977002
H            -5.48674057840333     0.94628675103589     1.88905109472756
H            -4.52247334952676     0.75126373418649     0.40750480211887
C            3.24114448144690     0.94018480515988     -1.03601590604356
C            3.51798421894396     0.53922806563182     -2.34373863638397
H            3.08632335829927     -0.37245387486680     -2.73361824555043
C            4.34349881252805     1.29637936518032     -3.15633894113822
H            4.55651975624200     0.96192166436643     -4.16191688787985
C            4.88522893568227     2.47964159507913     -2.68450213179543
H            5.53420956997186     3.06662878007451     -3.31705168143278
C            4.57853046775684     2.91134986705802     -1.40415538369742
H            4.98564760494108     3.84284697650533     -1.03933212218778
C            3.75477019520582     2.15461011909680     -0.59062081632682
H            3.51402056384471     2.49428781812491     0.40734149368299
C            2.66192136864114     -1.76945017241248     -0.10889779699865
C            3.56975635142778     -2.32276146607852     -0.99942427611744
H            4.14802986318313     -1.70457085865691     -1.66694488762904
C            3.76021718362633     -3.69755849426684     -1.05121255424134
H            4.44173907329428     -4.10901119001949     -1.78197622546349
C            3.07861124566671     -4.53861087406522     -0.19355614218989
H            3.20446285853621     -5.60929524414384     -0.25956672580798
C            2.24171226808942     -3.98958144190981     0.76604242066774
H            1.72962553131476     -4.62722399802870     1.47239298024469
C            2.04609135103846     -2.62542051038515     0.80692683080750
H            1.38277939183510     -2.21230665013736     1.55258542943300
S            -2.04600000000051     -0.00000000000045     -0.00000000000003

C P N S H 0
6-31G**
******
Ir 0
SDD
******

Ir 0
SDD


