%nprocshared=12
%mem=24GB
# opt int=grid=ultrafine M06 gen pseudo=read

Title

-1 1
Ir            -0.00000000000001     -0.00000000000001     -0.31209999999991
P            2.04600000000000     -0.00000000000001     -0.00000000000005
N            -0.04930000000007     -0.00000000000005     2.23150000000009
N            -1.30454043236032     0.00876540659537     2.63593202572884
N            -3.49889931916709     0.20929373885253     2.21764745509927
H            -3.52768681406983     0.36047677502278     3.21594895790000
C            2.93196316688977     0.30341135582557     1.56718012680802
C            2.32326716022235     0.10850403408616     2.82558941645378
C            3.15636834484080     0.12197787648545     3.95721940032869
H            2.71116367854354     -0.04009121673940     4.92860294978453
C            4.51503055313229     0.33258753905278     3.86813856802472
H            5.12295136568423     0.33118322541278     4.76073426980417
C            5.09873855414838     0.54495097355793     2.62866066751837
H            6.16176473900002     0.71479122228513     2.54146384903248
C            4.30592462525030     0.51660712944489     1.49714050944952
H            4.76273060904289     0.66580479464453     0.52843124096376
C            0.91683065685538     -0.06393675011114     3.08304542927369
H            0.64691204890166     -0.19293998186843     4.13217649742287
C            -2.24657067149557     0.09154294499940     1.72068208796627
C            -4.64815418444459     0.62144237926475     1.46080602874282
H            -4.70712508063022     1.71257889430428     1.37449487549456
H            -5.54808257483225     0.25654614293043     1.95377953420384
H            -4.58238800566760     0.19678396445197     0.46113313599252
C            3.16714862599732     0.67746907220800     -1.28331964592409
C            3.46740696887920     -0.08207931184704     -2.41166320962558
H            3.21360380653749     -1.13329231289904     -2.42994822084112
C            4.08558492621416     0.49790875143726     -3.50371296484087
H            4.31343998674819     -0.10240467034536     -4.37298671473921
C            4.39971979963628     1.84683912091886     -3.48965662990428
H            4.87448556247667     2.30023739427886     -4.34727780967560
C            4.08945407712036     2.61574486340292     -2.37845596627556
H            4.32495133643475     3.67018795293080     -2.37070793296211
C            3.46510453506294     2.03945967415976     -1.28860921385515
H            3.20306812071583     2.63680237543826     -0.42471320710735
C            2.45005971575036     -1.80910823995048     -0.12274178416180
C            3.64690028572382     -2.43058467479173     0.20765272037173
H            4.47552697705938     -1.84696143986314     0.58083792729497
C            3.77989034855858     -3.80134155733463     0.05755561152942
H            4.71527835838419     -4.27876316798542     0.31118185416370
C            2.72410290153176     -4.56622363133839     -0.41022080902283
H            2.83379001716384     -5.63539729695847     -0.51628560308963
C            1.52424981152600     -3.95779375239396     -0.74275188072710
H            0.69557830081346     -4.54694779827700     -1.10768569309214
C            1.39889551578598     -2.59029099911834     -0.60201754609520
H            0.45540204140324     -2.09530600578262     -0.86765414567680
S            -2.04599999999966     0.00000000000110     -0.00000000000000

C P N S H 0
6-31G**
******
Ir 0
SDD
******

Ir 0
SDD


