%nprocshared=12
%mem=24GB
# opt int=grid=ultrafine M06 gen pseudo=read

Title

-1 1
Ir            0.00000000000002     0.00010000000001     -0.30909999999997
H            0.02640000000001     -0.73459999999998     -1.74210000000001
H            -0.02630000000000     0.73480000000003     -1.74220000000005
P            2.04600000000021     -0.00000000000002     -0.00000000000009
N            -0.04930000000052     -0.00000000000020     2.23150000000078
N            -1.32060484912412     0.08252263376763     2.64758832963444
N            -3.51533129266585     0.25648910684085     2.18273358642858
H            -3.58367112955419     0.45963213797913     3.16943299390582
C            2.91897181634777     0.23204082490149     1.60839219119983
C            2.29087898323471     0.21395351393526     2.86577077826919
C            3.09581687229845     0.24260818537044     4.01640177466440
H            2.61284941320411     0.23992801723634     4.98379884993178
C            4.46950644050786     0.25174987539996     3.94333836913436
H            5.06096482773570     0.26654388105260     4.84654498610818
C            5.08520768796515     0.22540515417452     2.70034464543688
H            6.16207821574600     0.21119696777377     2.62287565626284
C            4.31180245946805     0.20727406270165     1.55767843065137
H            4.80055428968832     0.16916606214616     0.59550852799613
C            0.87245504865804     0.18360766716322     3.10481337157324
H            0.55963550498381     0.32900796262401     4.14078995037758
C            -2.24882720309328     0.11698803448579     1.73301063826384
C            -4.62795913573786     0.64249010746615     1.35577940630018
H            -4.58879960431409     1.70589079300254     1.09218110349908
H            -5.55211620459959     0.44274198674905     1.89439448135384
H            -4.61049115072806     0.06187116118608     0.43465035443254
C            3.18197075784872     0.79402817297007     -1.19744932033376
C            3.21197139058334     0.24636158429024     -2.47869266433204
H            2.61976354101593     -0.63641611105256     -2.68125879292161
C            3.98592800908215     0.82029241340155     -3.46820619656494
H            4.01917889575000     0.37662318307514     -4.45246165105236
C            4.71647215275322     1.96717293511032     -3.19720151621778
H            5.32780197828789     2.41358374229401     -3.96743558500633
C            4.64901633436389     2.54756328840706     -1.94183321421911
H            5.19991057987921     3.45397996173776     -1.73643882152339
C            3.87875202065056     1.97066998485544     -0.94654062661954
H            3.82630080100205     2.42954971787961     0.03137314363053
C            2.59235796059494     -1.77379299228648     -0.05429085040121
C            3.74499332437695     -2.26510556884185     -0.65169672810522
H            4.42883120873189     -1.59613111555238     -1.15321359375049
C            4.01712344672987     -3.62309593942034     -0.62428720779701
H            4.90928329218703     -3.99738328308165     -1.10530666940918
C            3.15590177039037     -4.50171563083331     0.00941742140092
H            3.37091991975957     -5.56001398527770     0.02247809728866
C            2.01341902816197     -4.01754820623932     0.62519072400520
H            1.33619071301209     -4.69511107533202     1.12495407709305
C            1.73670835908239     -2.66543756044002     0.58963836163105
H            0.83942784327970     -2.29067530918400     1.06611514773753
S            -2.04600000000229     0.00000000000604     -0.00000000000002

C P N S H 0
6-31G**
******
Ir 0
SDD
******

Ir 0
SDD


