%nprocshared=12
%mem=24GB
%chk=TS-1olefin-disso
# opt=(modredundant) int=grid=ultrafine M06 gen pseudo=read

Title

-1 1
Ir            0.00410000000000     -0.02760000000000     -0.28950000000000
C            0.06270000000003     -0.77649999999998     -2.96359999999998
C            0.55670000000002     0.23800000000001     -3.68409999999999
H            1.48989999999998     0.08230000000000     -4.23640000000000
H            -0.90839999999999     -0.69740000000000     -2.46559999999999
C            -0.10320000000002     1.55790000000000     -3.89010000000000
H            -0.90410000000000     1.68710000000000     -3.15200000000000
H            0.61710000000003     2.37140000000002     -3.70930000000000
C            -0.68209999999998     1.70090000000000     -5.29630000000001
H            -1.38720000000004     0.87379999999999     -5.47930000000000
H            0.11499999999998     1.59070000000000     -6.04930000000001
C            -1.39620000000001     3.02990000000001     -5.48910000000002
H            -0.68960000000003     3.85179999999996     -5.29810000000000
H            -2.18000000000007     3.12530000000001     -4.72059999999999
H            0.06590000000004     -1.69709999999995     -0.04889999999998
H            -0.04210000000000     1.64490000000000     -0.54830000000000
C            -2.00210000000015     3.17369999999998     -6.87449999999991
H            -2.51549999999998     4.13280000000001     -7.00000000000000
H            -1.22990000000004     3.10560000000001     -7.65110000000000
H            -2.73150000000001     2.37750000000002     -7.06939999999998
H            0.55459999999999     -1.74459999999997     -2.92210000000000
P            2.04599999999995     -0.00000000000004     -0.00000000000002
N            -0.04929999999996     -0.00000000000001     2.23149999999990
N            -1.30109572479503     -0.10583953193450     2.62601879782321
N            -3.49914733424108     -0.18126411768349     2.23079662943173
H            -3.54252477701624     -0.12490476695752     3.23805506916775
C            2.93701549152268     0.17577472949493     1.57320398543164
C            2.33033845806538     -0.14263622521509     2.80698617608053
C            3.18234900224324     -0.40859443951164     3.89179261644017
H            2.74445830591690     -0.69054340301028     4.83884992226056
C            4.55509013841247     -0.35017429319934     3.77883178907331
H            5.17892823017050     -0.59538072463803     4.62561943734439
C            5.13579243263492     0.01707099330273     2.57344421973984
H            6.20989821763061     0.07479764072018     2.47408851870215
C            4.32473198300473     0.26785165304123     1.48507850291137
H            4.76991055346186     0.52080922988860     0.53209060484387
C            0.91472071561421     -0.23457881481894     3.05886072016147
H            0.64383889404662     -0.51017001817776     4.07995855027090
C            -2.25384002726223     -0.07092541197282     1.72419368579360
C            -4.72482054765727     -0.02325135154216     1.50296277203204
H            -5.09783001502649     1.00422320578170     1.56234878961187
H            -5.47529339015746     -0.69812506765989     1.91607486953307
H            -4.54310393699120     -0.27121384607605     0.45935151163328
C            3.14033945917425     0.78697962225204     -1.22953626648090
C            3.58628855982435     0.10934404857244     -2.35775277249457
H            3.45402544599578     -0.96238834544114     -2.42156197717436
C            4.18552280247348     0.80609925472931     -3.39299795365027
H            4.52234214529492     0.27867425515206     -4.27463426454650
C            4.33798122069124     2.18014194108249     -3.31133540158187
H            4.78812860523352     2.72360545805973     -4.12936168251130
C            3.90348257228280     2.86019996437858     -2.18325919105150
H            4.02200328102650     3.93222043452424     -2.12031484346822
C            3.29904629875143     2.16914592048238     -1.15167917212699
H            2.92939276490936     2.68666986799984     -0.27624176992254
C            2.23733214576270     -1.80738526001644     -0.09527603115673
C            3.31634657019327     -2.58525265178319     0.24197887559486
H            4.29545544304419     -2.13201163402105     0.31995710277579
C            3.16549675416667     -3.94339620073690     0.50512618565889
H            4.02906486229896     -4.56532377590767     0.67723893284108
C            1.86950624016407     -4.47324612279150     0.68229369115129
H            1.76974775200584     -5.47004308525040     1.08792879173494
C            0.76092201426956     -3.75388673578028     0.38701766575860
H            -0.23129651897961     -4.14879409762022     0.55030998943181
C            0.88853005838798     -2.44528953492957     -0.29997189561727
H            0.72225254433369     -2.64130961486067     -1.37153964495745
S            -2.04600000000031     -0.00000000000015     -0.00000000000000

B 1 2 F
B 1 3 F
B 2 3 F

C P N S H 0
6-31G**
******
Ir 0
SDD
******

Ir 0
SDD

--Link1--
%nprocshared=12
%mem=24GB
%oldchk=TS-1olefin-disso
# opt(ts,readfc,nofreeze,noeigentest) guess=read geom=allchk freq int=grid=ultrafine M06 gen pseudo=read

C P N S H 0
6-31G**
******
Ir 0
SDD
******

Ir 0
SDD


