%nprocshared=12
%mem=24GB
%chk=TS-BHT-1-2
# opt=(modredundant) int=grid=ultrafine M06 gen pseudo=read

Title

-1 1
Ir            0.01030000000000     0.12279999999999     -0.41610000000000
C            -0.01180000000007     0.03450000000004     -2.61919999999998
C            0.28320000000002     1.41740000000000     -2.36569999999999
H            1.34689999999999     1.66200000000001     -2.41570000000000
C            -0.55790000000003     2.51270000000001     -2.99190000000000
C            -0.23590000000002     3.93190000000001     -2.53919999999998
H            -1.62099999999997     2.28990000000001     -2.85750000000001
H            -0.37860000000000     2.43790000000001     -4.07769999999998
H            -1.07689999999999     4.59950000000001     -2.78109999999998
H            -0.14310000000000     3.95740000000001     -1.43989999999999
H            0.09140000000000     1.84430000000001     -0.87200000000000
H            0.02800000000003     -1.48720000000003     -0.22769999999998
H            -0.98120000000002     -0.19449999999998     -3.06680000000001
H            0.79029999999994     -0.59330000000005     -3.00620000000001
C            1.03340000000003     4.49660000000001     -3.16729999999995
H            1.86110000000001     3.78090000000002     -3.04689999999999
H            0.88160000000001     4.59480000000000     -4.25290000000002
C            1.43050000000001     5.83569999999997     -2.57049999999988
H            2.32120000000005     6.25380000000002     -3.05170000000002
H            0.62049999999998     6.56909999999998     -2.67329999999999
H            1.64559999999999     5.73670000000000     -1.49830000000003
P            2.04600000000002     -0.00000000000000     -0.00000000000009
N            -0.04930000000038     -0.00000000000000     2.23150000000005
N            -1.29916622591932     -0.00425611493728     2.62327679316875
N            -3.48639432003497     0.30652009956879     2.24563971465292
H            -3.44228705773914     0.37636912707605     3.25621760334848
C            2.91174395456904     0.30777362450545     1.57128936471742
C            2.32370960214101     0.01399608758672     2.81848250308596
C            3.18709231654896     -0.11571561811142     3.92112567829807
H            2.76345919873201     -0.36986147391771     4.88220392058541
C            4.55239247264179     0.04027726051054     3.81015722003799
H            5.18695249626013     -0.09957253772349     4.67289216822210
C            5.11463614775501     0.35615496468316     2.58218690213641
H            6.18329252738837     0.46801998944642     2.47282000753317
C            4.29282187609636     0.47214221136533     1.47831788256291
H            4.73790510854209     0.65576434977931     0.51122514429973
C            0.91647795558376     -0.16819759657418     3.07230021018361
H            0.65752471457044     -0.42251346965430     4.10130905827056
C            -2.23813347007468     0.12315500109407     1.72367196819106
C            -4.45546500150334     1.18775692057751     1.64212908941869
H            -4.19498368196027     2.24230504543351     1.80131664998825
H            -5.42869782248088     0.99780553756065     2.09103275188840
H            -4.49606957068241     0.99109723337560     0.57480544494256
C            3.19340000747545     0.72110147477037     -1.25659557151314
C            3.50810126981239     0.00977053526710     -2.41355276401097
H            3.30270442310633     -1.04805780554287     -2.46780300546536
C            4.08340249890701     0.64259250980457     -3.50068721188318
H            4.29239074468063     0.07705741484840     -4.39771335820860
C            4.37681513769942     1.99425755894190     -3.44573914505919
H            4.81151335100240     2.49011984361006     -4.30094172844458
C            4.10284520951911     2.70715175593439     -2.28823506483487
H            4.34571595435889     3.75855833476283     -2.23440126085694
C            3.49796556273860     2.08251330574673     -1.21201232541115
H            3.24949216524094     2.64939695275844     -0.32376950049852
C            2.59203272741619     -1.80379985798955     -0.13399134515738
C            3.39668141729441     -2.48085443328136     0.77305427447296
H            3.85325660026058     -1.96905831541254     1.60450946039812
C            3.61846306079272     -3.84656929532907     0.65106396417079
H            4.23040496675199     -4.34826812853434     1.38672136862452
C            3.05273134654763     -4.57168711336092     -0.37895242855903
H            3.20394554291110     -5.63839428634605     -0.45402459340741
C            2.26926282494360     -3.90902758811782     -1.30861126825841
H            1.80589180280576     -4.44898901332505     -2.12222340860554
C            2.04760457382270     -2.55383845867524     -1.18035682106648
H            1.38437695566001     -2.08507269326284     -1.88731168287328
S            -2.04600000000046     0.00000000000016     -0.00000000000001

B 1 2 F
B 2 3 F
B 3 11 F
B 11 1 F

C P N S H 0
6-31G**
******
Ir 0
SDD
******

Ir 0
SDD

--Link1--
%nprocshared=12
%mem=24GB
%oldchk=TS-BHT-1-2
# opt(ts,readfc,nofreeze,noeigentest) guess=read geom=allchk freq int=grid=ultrafine M06 gen pseudo=read

C P N S H 0
6-31G**
******
Ir 0
SDD
******

Ir 0
SDD


