%nprocshared=12
%mem=24GB
%chk=TS-CH-Add-1-2
# opt=(modredundant) int=grid=ultrafine M06 gen pseudo=read

Title

-1 1
Ir            0.00039999999977     -0.10800000000002     -0.34670000000000
C            -0.06130000000002     -0.31670000000001     -2.63960000000001
C            0.34020000000004     1.00750000000001     -3.28000000000006
H            1.35050000000000     1.28060000000001     -2.95439999999999
C            0.31099999999993     0.94080000000001     -4.80530000000002
C            0.66810000000007     2.25269999999989     -5.49320000000001
H            -0.68700000000004     0.60959999999997     -5.13369999999999
H            1.01360000000005     0.15619999999998     -5.13610000000003
H            0.61209999999998     2.11759999999999     -6.58470000000001
H            -0.08610000000010     3.01829999999990     -5.24670000000001
H            -0.31270000000003     1.83009999999998     -2.94360000000000
H            0.01570000000001     -1.30660000000000     -1.36550000000002
H            -1.07159999999999     -0.59130000000002     -2.97559999999998
H            0.59140000000003     -1.08329999999999     -3.09579999999997
C            2.04980000000005     2.78659999999997     -5.13359999999999
H            2.06279999999999     3.10020000000000     -4.07930000000000
H            2.78680000000001     1.96949999999993     -5.21300000000000
C            2.46589999999994     3.95370000000004     -6.01329999999999
H            3.44769999999992     4.35179999999996     -5.73450000000000
H            2.51369999999998     3.65550000000002     -7.06820000000002
H            1.74160000000003     4.77520000000001     -5.94050000000000
P            2.04600000000003     -0.00000000000008     0.00000000000001
N            -0.04930000000008     0.00000000000004     2.23150000000012
N            -1.31556783019253     0.14005682020079     2.63613932663645
N            -3.49328671932837     0.45031479280139     2.16277479987369
H            -3.54400005299350     0.69163243760083     3.14163734836520
C            2.91181749837763     0.15559229179740     1.63191721039889
C            2.28758475329863     -0.00319836992194     2.88236616889616
C            3.09283103676565     -0.15435025280770     4.02366943466543
H            2.60707042009199     -0.28086240701264     4.98118256393148
C            4.46554768605548     -0.17206726562105     3.95092997466603
H            5.05698667297211     -0.31119594757031     4.84356980607506
C            5.07943189237270     -0.02076554366038     2.71608792490087
H            6.15592091574926     -0.03950573641821     2.63345474876118
C            4.30577859199230     0.13053649478062     1.58411367184068
H            4.80195244572199     0.22068906458878     0.62974972511868
C            0.87150880184555     0.00637241298592     3.12445967148989
H            0.56236357119981     0.04148041060150     4.17068548769308
C            -2.23946763718969     0.20726967950722     1.71587765923624
C            -4.58624686268406     0.86360158248288     1.32473549089845
H            -4.49969839376066     1.91636386788836     1.02998172818464
H            -5.51966807572455     0.72281298326916     1.86617256908332
H            -4.59417140167066     0.25491578540840     0.42150583198962
C            3.24935734694653     0.83115140095345     -1.11006271357005
C            3.50033941286537     0.26677356159289     -2.35964572563486
H            3.01140203111043     -0.66017817434180     -2.62429504107882
C            4.37309243420927     0.87454440425900     -3.24213185321253
H            4.58908739186331     0.40753171802776     -4.19247418923641
C            4.97313969268452     2.07791171572048     -2.90640332622296
H            5.66052688994239     2.54961912442332     -3.59274214119001
C            4.67884724565035     2.67872579019992     -1.69366387021083
H            5.13014857176394     3.62642149794711     -1.43798534609279
C            3.81784347556274     2.06313257326121     -0.80206456510082
H            3.60067666045856     2.52584860557035     0.15173626591358
C            2.65129658270511     -1.77195321687747     -0.06524868584221
C            3.83025688305582     -2.24399369477955     -0.62604667719309
H            4.54303347919876     -1.56385332341496     -1.06786620992112
C            4.10535513145347     -3.60245455039857     -0.63999998265199
H            5.01607497305602     -3.95512074511305     -1.10251818488373
C            3.22621163948487     -4.50701962547479     -0.07275941654493
H            3.44026823390088     -5.56531084363893     -0.09827049793970
C            2.07006070005348     -4.04286339290091     0.53312631661110
H            1.38132820675882     -4.73571276760868     0.99421124268202
C            1.79038411621828     -2.69113953450513     0.53432444914306
H            0.88182567198176     -2.33196794284831     1.00057747446705
S            -2.04600000000010     -0.00000000000035     -0.00000000000001

B 1 12 F
B 1 2 F
B 2 12 F

C P N S H 0
6-31G**
******
Ir 0
SDD
******

Ir 0
SDD

--Link1--
%nprocshared=12
%mem=24GB
%oldchk=TS-CH-Add-1-2
# opt(ts,readfc,nofreeze,noeigentest) guess=read geom=allchk freq int=grid=ultrafine M06 gen pseudo=read

C P N S H 0
6-31G**
******
Ir 0
SDD
******

Ir 0
SDD


