%nprocshared=12
%mem=24GB
# opt int=grid=ultrafine M06 gen pseudo=read

Title

-1 1
Ir            -0.01040000000000     -0.11320000000000     -0.40740000000000
C            0.06620000000000     0.48600000000003     -2.55360000000000
C            -0.31960000000000     -0.86339999999999     -2.54700000000000
H            -1.39010000000001     -1.06660000000000     -2.62170000000000
C            0.52180000000000     -1.93680000000000     -3.19220000000001
C            0.14450000000001     -3.37680000000000     -2.86289999999998
H            1.57969999999999     -1.76080000000000     -2.97630000000000
H            0.42399999999999     -1.80530000000000     -4.28520000000000
H            0.98629999999999     -4.04320000000000     -3.10940000000001
H            -0.01140000000001     -3.47390000000000     -1.77580000000000
H            0.05020000000000     -1.77280000000000     -0.14760000000000
H            -0.06350000000000     1.54970000000000     -0.26860000000000
H            1.07649999999999     0.73780000000000     -2.88100000000000
H            -0.65899999999999     1.27470000000000     -2.74000000000000
C            -1.09020000000002     -3.86790000000001     -3.60889999999999
H            -1.92520000000001     -3.16840000000000     -3.45259999999999
H            -0.88500000000000     -3.84910000000000     -4.69019999999999
C            -1.50760000000001     -5.26500000000000     -3.18280000000001
H            -2.38170000000003     -5.62259999999999     -3.73800000000001
H            -0.69380000000002     -5.98410000000000     -3.34260000000001
H            -1.75700000000001     -5.28950000000000     -2.11390000000002
C            0.00460000000001     0.00000000000000     1.55500000000000
C            -1.21357559065483     0.16125598172174     2.22826148951936
C            -1.20633108126359     0.31982848462684     3.61379084782040
H            -2.13121733505161     0.45547014006314     4.15463781949677
C            0.01055507965980     0.31146552988169     4.28475278688745
H            0.01273697738856     0.42645516428492     5.35900377425308
C            1.22650115106669     0.18704088475127     3.62286510089125
H            2.15614233772257     0.21453509350514     4.17168390045403
C            1.22652059485967     0.04796182619060     2.23553899282819
C            2.29810645029689     -0.01045163929634     1.28062239718389
C            4.31317696917758     -0.25988727673429     0.38628781078364
H            4.65649701777301     -1.29978933852922     0.34126854870211
H            5.17937452249440     0.40158865087303     0.39010209659673
C            3.28993652906783     0.06031533059468     -0.72219716187337
H            3.30589847955722     -0.70004438633754     -1.51057710813617
C            3.50086774860719     1.44860211309232     -1.36878523639533
H            2.65379350796222     1.61458550114873     -2.03845562607422
C            3.48757706789366     2.57343403417018     -0.33753856868953
H            4.30104364063170     2.47862919147050     0.37807962678496
H            2.54389990056726     2.57080403577436     0.20331959570228
H            3.58914790939483     3.53244549733741     -0.84054566816261
C            4.78019312314468     1.46409044653499     -2.20220357165266
H            4.86672332736660     2.41187725203040     -2.72806474573307
H            4.77027557594844     0.66335599211083     -2.93909869244100
H            5.66282722984380     1.34367155048187     -1.57786942495104
C            -2.28400994205214     0.18805237828726     1.27183877550047
C            -4.25731104203070     0.56953248783666     0.33492861095821
H            -4.43314064767424     1.63370762134062     0.13761252430286
H            -5.21598788748214     0.05850122390366     0.41844586808191
C            -3.30304979949623     -0.05624199444998     -0.69922106819164
H            -3.25929486587686     0.53714563361506     -1.61810690916910
C            -3.67312688211053     -1.51575211112964     -1.06001017590184
H            -2.84537363445942     -1.91723854833365     -1.64915853420587
C            -3.80777602389189     -2.40646660569458     0.17200040408912
H            -2.88203550396299     -2.39749202783306     0.74371369198346
H            -4.00388090801532     -3.43005411436915     -0.14005396435875
H            -4.62196934838086     -2.08843014269621     0.81908928147287
C            -4.93579256098986     -1.55138760722854     -1.91780270867155
H            -5.13785030060905     -2.57133436021335     -2.23593286190047
H            -4.81764048073748     -0.93306847438742     -2.80537866628958
H            -5.80109171790338     -1.19289926740729     -1.36457874567846
N            2.01989999999895     0.00000000000144     -0.00000000000088
N            -2.01990000000063     -0.00000000000061     0.00000000000032
O            3.59785574799459     -0.07605375088769     1.60335619107678
O            -3.56655218649633     0.44931481514710     1.57417276376063

C O N H 0
6-31G**
******
Ir 0
SDD
******

Ir 0
SDD


