%nprocshared=12
%mem=24GB
# opt int=grid=ultrafine M06 gen pseudo=read

Title

-1 1
Ir            -0.00000000000000     0.00000000000000     -0.31210000000000
C            0.00460000000000     0.00000000000000     1.55500000000000
C            -1.22818589738799     0.02289938971515     2.24459898727244
C            -1.21357225134664     0.05657327863436     3.63998858679674
H            -2.13623244947606     0.07871401533189     4.20051592187448
C            0.01040353574078     0.06742692161547     4.30076639949478
H            0.01262674986065     0.09250055162858     5.38118252174234
C            1.23232378788491     0.05524450082975     3.63584437658949
H            2.15731840459240     0.07173079721389     4.19287846242214
C            1.24213123101807     0.02582074965031     2.24088070778315
C            2.31207928930794     0.01462731923766     1.28514002226337
C            4.33925398027041     -0.03337946328720     0.34669805028656
H            4.96680980204050     -0.92868907203044     0.33281347668260
H            4.98076468238490     0.85005136428489     0.29506692856082
C            3.25485280431676     -0.05870672934369     -0.75684737181906
H            3.29320000726261     -1.01318316740778     -1.30212901558779
C            3.32451673323862     1.07317369676759     -1.79926375719811
H            2.43300154024314     0.95240704373484     -2.42815138337679
C            3.25605179708886     2.45441712253247     -1.15387742362632
H            4.15961380761728     2.67430209441205     -0.59006202222963
H            2.40288359325738     2.50906819932582     -0.48058923043939
H            3.14411530448981     3.21772750630793     -1.92052292817339
C            4.56140381415989     0.92390918854479     -2.68003303243960
H            4.57418972329377     1.69781765985941     -3.44385295848371
H            4.56801690110947     -0.04542014457783     -3.17433393216552
H            5.47029483300295     1.01186058676868     -2.08925686926691
C            -2.29878923743974     0.03753963302134     1.29040668295781
C            -4.32630908254094     0.21757018766606     0.37956852011908
H            -4.80152774942645     1.20304659739916     0.33439056225263
H            -5.10325120391169     -0.54922270889816     0.37354424201495
C            -3.27026525924056     0.03229810484558     -0.73593771720161
H            -3.27438978880807     0.89675051867192     -1.41353194686788
C            -3.44239780482438     -1.23971875616349     -1.59063680131429
H            -2.57876175141825     -1.27003101404210     -2.26605313152217
C            -3.41415276890159     -2.50447821499566     -0.73663273318481
H            -2.50762344874737     -2.52877372952560     -0.13570250843754
H            -3.43283883362868     -3.38506766485866     -1.37435618140196
H            -4.27199614351202     -2.55198766665651     -0.07019806529190
C            -4.71262207254812     -1.15811515671629     -2.43259101307040
H            -4.78787808293254     -2.02642456745302     -3.08262891694706
H            -4.70785857105826     -0.26405522594799     -3.05277267726797
H            -5.59756646987666     -1.12946040756708     -1.80105180501439
N            2.01989999999995     0.00000000000001     -0.00000000000008
N            -2.01990000000008     0.00000000000001     -0.00000000000004
O            3.62803773500704     0.00047204457781     1.57865256811263
O            -3.60754090931701     0.11951206042532     1.60115641162171

C O N H 0
6-31G**
******
Ir 0
SDD
******

Ir 0
SDD


