%nprocshared=12
%mem=24GB
# opt int=grid=ultrafine M06 gen pseudo=read

Title

-1 1
Ir            -0.00000000000000     -0.00010000000000     -0.30910000000000
H            -0.02640000000000     0.73460000000000     -1.74220000000000
H            0.02630000000000     -0.73490000000000     -1.74210000000000
C            0.00460000000000     0.00000000000000     1.55500000000000
C            -1.20376920832046     0.04527355350757     2.24508464957008
C            -1.20860015856126     0.09234220135404     3.64017202083190
H            -2.13457933089107     0.13027226688097     4.19633151812404
C            0.01356649090785     0.09449554122101     4.30382521558757
H            0.01703457629423     0.12573141922006     5.38472272544445
C            1.23258179298778     0.06807597088478     3.63463300017379
H            2.16263714169732     0.08098152945317     4.18535834739899
C            1.21979556211901     0.02724655596264     2.24027753206113
C            2.30147110518606     0.00776890644662     1.27500530388454
C            4.33353185177771     -0.05534582910662     0.36300324630543
H            4.94449248514410     -0.96175531094346     0.35434295357145
H            4.99114744575315     0.81669665267104     0.32950110497003
C            3.26130588064591     -0.05035477165760     -0.75273234658132
H            3.28386969756998     -0.99042335424540     -1.31881644121243
C            3.35504192495809     1.10340918726296     -1.76803409606829
H            2.48461239200658     0.98631852061772     -2.42096983508460
C            3.25279471629173     2.47129067362748     -1.10020346809530
H            4.09811368117035     2.66549433858660     -0.44322479787414
H            2.33318562803076     2.53001881247825     -0.52234550575997
H            3.22884797762658     3.24993179798764     -1.85801548325514
C            4.62337929370461     0.97946235752573     -2.60728008568717
H            4.64372476494341     1.75801647686359     -3.36537396941912
H            4.65745824567850     0.01474125559785     -3.10769326715865
H            5.51525220302607     1.07937485584537     -1.99241453624343
C            -2.28513509232936     0.06367165640352     1.28008523172106
C            -4.31832691604908     0.24823172948495     0.39672265142286
H            -4.79496912381504     1.23182473388177     0.34256148772052
H            -5.09353245255613     -0.51991255765200     0.42323181702430
C            -3.27727706991021     0.03449867754577     -0.72794765226683
H            -3.26318545494710     0.88603089682123     -1.41803527383367
C            -3.47257212472446     -1.24701969790799     -1.56056965879369
H            -2.62746718676460     -1.27781330051288     -2.25531368476714
C            -3.41449530458848     -2.50381531314244     -0.69686826074903
H            -2.46017080565073     -2.55150692578025     -0.17764994931311
H            -3.50613799530171     -3.38727396325957     -1.32320572812556
H            -4.21654419414163     -2.52596567448940     0.03807865022112
C            -4.77105180515723     -1.17344263389487     -2.35883375425176
H            -4.85908798309979     -2.04163647256672     -3.00652433273984
H            -4.78897212156946     -0.28009525406798     -2.97831048568106
H            -5.63819567702007     -1.15207094038448     -1.70218319838239
N            2.01989999999993     0.00000000000004     -0.00000000000000
N            -2.01989999999999     -0.00000000000005     0.00000000000004
O            3.60548955995928     -0.01681836225965     1.58774717750329
O            -3.57918915178191     0.17659426311947     1.61075031146442

C O N H 0
6-31G**
******
Ir 0
SDD
******

Ir 0
SDD


