%nprocshared=12
%mem=24GB
%chk=TS-1olefin-disso
# opt=(modredundant) int=grid=ultrafine M06 gen pseudo=read

Title

-1 1
Ir            -0.00410000000000     -0.00800000000000     -0.29060000000000
C            -0.06270000000000     0.40949999999999     -3.03610000000000
C            -0.55670000000000     -0.68530000000000     -3.62760000000000
H            -1.48990000000000     -0.59789999999999     -4.19480000000000
H            0.90840000000000     0.39160000000000     -2.53220000000000
C            0.10320000000000     -2.02020000000000     -3.67120000000000
H            0.90410000000000     -2.05870000000000     -2.92280000000000
H            -0.61710000000000     -2.80580000000000     -3.39270000000000
C            0.68210000000000     -2.33360000000000     -5.04960000000000
H            1.38720000000000     -1.53490000000000     -5.33200000000000
H            -0.11500000000000     -2.31610000000000     -5.81040000000000
C            1.39620000000000     -3.67630000000000     -5.07900000000000
H            0.68960000000000     -4.46880000000001     -4.78920000000000
H            2.18000000000000     -3.67720000000000     -4.30460000000000
H            -0.06590000000000     1.67850000000000     -0.25540000000000
H            0.04210000000000     -1.69950000000000     -0.34360000000000
C            2.00210000000001     -3.98780000000000     -6.43650000000000
H            2.51550000000000     -4.95510000000002     -6.44430000000000
H            1.22989999999999     -4.01480000000001     -7.21560000000000
H            2.73150000000001     -3.22130000000001     -6.72700000000000
H            -0.55460000000000     1.37560000000000     -3.11280000000000
C            0.00460000000001     0.00000000000001     1.55500000000000
C            -1.22812320009945     0.05903882685847     2.23607855457341
C            -1.21047618043168     0.13243605536621     3.62778602914212
H            -2.13451749851691     0.18862966884851     4.18360760765868
C            0.01171746158576     0.14219380892669     4.29263270970889
H            0.01450875187144     0.20057280846144     5.37114563296941
C            1.23057550188050     0.09230163266836     3.62560108474102
H            2.15942849930143     0.11401061907816     4.17602531963687
C            1.23933450683476     0.02724883293625     2.23352721972327
C            2.31113438628198     -0.01567270096538     1.28024286529419
C            4.32361479755357     -0.26308813259207     0.36358589516021
H            4.78496948971777     -1.25540922041085     0.34915432319965
H            5.10948781226576     0.49388589708713     0.33101442158222
C            3.26757255794338     -0.09133564975464     -0.75383337621217
H            3.23023487219907     -0.98593413763522     -1.39033943800794
C            3.51501003756228     1.13030194128247     -1.66583232826433
H            2.69654227744965     1.16168968544419     -2.39095772998290
C            3.48841755418461     2.44376512088488     -0.89099877629634
H            4.28911863260117     2.49608534795749     -0.15693197795722
H            2.53562161766813     2.54929607331618     -0.37731285310375
H            3.60373763962833     3.27876640302990     -1.57839639192582
C            4.81411005484378     0.95689212264194     -2.45106272698077
H            4.91939493514238     1.76389063263077     -3.17222691794978
H            4.81240222879998     0.01323565825804     -2.99301319770367
H            5.68198744380340     0.97365095096135     -1.79647327394657
C            -2.30251913209220     0.06279907886018     1.28162820864830
C            -4.31713437177600     0.23081003608564     0.35710676750007
H            -4.72865019975236     1.24166477062357     0.26428499273178
H            -5.13841551130486     -0.48656555857497     0.38451498582649
C            -3.26987888499428     -0.07073580730369     -0.73832295074968
H            -3.28135787725579     0.69810842675009     -1.51966826483220
C            -3.42147267768149     -1.45283494095556     -1.40933556514925
H            -2.55551527112887     -1.55779968762299     -2.07053700009448
C            -3.36848583897659     -2.58905424007376     -0.39171793020516
H            -2.41698539057830     -2.56971151543448     0.13406757957055
H            -3.45741306279576     -3.54546417177206     -0.90169076210403
H            -4.17267699691569     -2.51753084090021     0.33726636606456
C            -4.69494101852267     -1.50840714232332     -2.24858451988188
H            -4.74101305605207     -2.44899803268353     -2.79181663617560
H            -4.71907242316056     -0.69339104714030     -2.96883644117279
H            -5.58166785290008     -1.43732033223761     -1.62256128056268
N            2.01990000000013     0.00000000000002     0.00000000000006
N            -2.01989999999990     -0.00000000000074     0.00000000000000
O            3.61342888092997     -0.11528201438386     1.58793844808762
O            -3.60711387738883     0.14734258056850     1.58914802305092

B 1 2 F
B 1 3 F
B 2 3 F

C O N H 0
6-31G**
******
Ir 0
SDD
******

Ir 0
SDD

--Link1--
%nprocshared=12
%mem=24GB
%oldchk=TS-1olefin-disso
# opt(ts,readfc,nofreeze,noeigentest) guess=read geom=allchk freq int=grid=ultrafine M06 gen pseudo=read

C O N H 0
6-31G**
******
Ir 0
SDD
******

Ir 0
SDD


