%nprocshared=12
%mem=24GB
%chk=TS-BHT-1-2
# opt=(modredundant) int=grid=ultrafine M06 gen pseudo=read

Title

-1 1
Ir            -0.01030000000000     -0.12270000000000     -0.41600000000000
C            0.01180000000000     -0.03449999999999     -2.61920000000000
C            -0.28320000000000     -1.41750000000000     -2.36560000000000
H            -1.34690000000000     -1.66200000000000     -2.41570000000000
C            0.55790000000000     -2.51270000000001     -2.99190000000000
C            0.23589999999998     -3.93200000000000     -2.53909999999999
H            1.62100000000000     -2.29000000000000     -2.85740000000000
H            0.37860000000000     -2.43800000000000     -4.07760000000000
H            1.07690000000000     -4.59960000000000     -2.78100000000001
H            0.14310000000000     -3.95750000000000     -1.43980000000002
H            -0.09140000000000     -1.84430000000000     -0.87200000000000
H            -0.02800000000000     1.48720000000000     -0.22769999999999
H            0.98120000000000     0.19450000000000     -3.06680000000000
H            -0.79030000000000     0.59320000000000     -3.00620000000000
C            -1.03340000000001     -4.49670000000000     -3.16720000000003
H            -1.86110000000000     -3.78100000000000     -3.04680000000000
H            -0.88160000000001     -4.59500000000000     -4.25279999999999
C            -1.43049999999999     -5.83580000000001     -2.57040000000001
H            -2.32119999999999     -6.25389999999999     -3.05160000000000
H            -0.62050000000001     -6.56910000000000     -2.67320000000000
H            -1.64560000000001     -5.73680000000000     -1.49820000000000
C            0.00460000000001     0.00000000000001     1.55500000000000
C            -1.21291559286508     0.20752121839489     2.22615895713163
C            -1.21017218871201     0.46203585430796     3.59548355140413
H            -2.13658344756056     0.62959204477817     4.12530774332957
C            0.00698757879950     0.51637073836763     4.26424756988826
H            0.00797293325941     0.70877793085136     5.32746329118085
C            1.22398895717442     0.37409275211102     3.60711851942641
H            2.15250620676533     0.47122836110319     4.15036160929232
C            1.22694100880437     0.13285916007503     2.23462422628930
C            2.29770594878091     0.08206220150793     1.28220022978689
C            4.32974099627536     0.03163185515105     0.38456005812883
H            4.81492640614527     -0.95124399415542     0.37428564765471
H            5.09679465154355     0.80587251955172     0.35900846972997
C            3.27222395024549     0.17140596138291     -0.73004159482510
H            3.37984831130992     -0.61855652479942     -1.48179866372620
C            3.30722363292862     1.53926169556430     -1.44914170639386
H            2.43488031506538     1.56076562991385     -2.10745417956147
C            3.17271489987735     2.70777760163063     -0.47664915151661
H            4.00573701036116     2.75466306880715     0.22124232315939
H            2.24722864293418     2.61842439979282     0.08683623607524
H            3.14342246713160     3.64232164020148     -1.03161566630348
C            4.57062197377247     1.66647946869837     -2.29665357893495
H            4.53897150230432     2.58886914606813     -2.87095064997779
H            4.65784998515851     0.83326912470438     -2.99066044927182
H            5.46293304843548     1.68775740705184     -1.67442808903165
C            -2.27979386769642     0.22603501650612     1.26899723659893
C            -4.21800407510211     0.75784647097834     0.32496993313599
H            -4.36111417812740     1.83213512427214     0.16446662775688
H            -5.19283463127000     0.27457052181578     0.38718304726552
C            -3.28336980131347     0.13678157860918     -0.73366514209914
H            -3.13452764578359     0.81845122286482     -1.57790685163858
C            -3.80990527613885     -1.20790314444757     -1.28553747775369
H            -3.06480236112647     -1.57336873307854     -1.99579843788916
C            -3.96761688495254     -2.26061979033793     -0.19217599463645
H            -3.02733916049931     -2.39598719572962     0.33840978552353
H            -4.25367967129876     -3.21319858682561     -0.63349128355227
H            -4.73231616479070     -1.97681694472019     0.52777632736707
C            -5.10594776659404     -1.00769305294286     -2.06924029970800
H            -5.38469959168646     -1.93716926961102     -2.56072294258652
H            -4.97728847033926     -0.24339677067397     -2.83295848637821
H            -5.92773323816962     -0.71116097710811     -1.42225860159927
N            2.01989999999947     -0.00000000000005     0.00000000000038
N            -2.01990000000090     -0.00000000000007     0.00000000000006
O            3.60007009138500     0.15965791820830     1.59891153759532
O            -3.54382830975615     0.57312879440967     1.56222706292060

B 1 2 F
B 2 3 F
B 3 11 F
B 11 1 F

C O N H 0
6-31G**
******
Ir 0
SDD
******

Ir 0
SDD

--Link1--
%nprocshared=12
%mem=24GB
%oldchk=TS-BHT-1-2
# opt(ts,readfc,nofreeze,noeigentest) guess=read geom=allchk freq int=grid=ultrafine M06 gen pseudo=read

C O N H 0
6-31G**
******
Ir 0
SDD
******

Ir 0
SDD


