%nprocshared=12
%mem=24GB
%chk=TS-CH-Add-1-2
# opt=(modredundant) int=grid=ultrafine M06 gen pseudo=read

Title

-1 1
Ir            -0.00040000000000     0.10809999999999     -0.34670000000000
C            0.06130000000000     0.31670000000000     -2.63970000000000
C            -0.34020000000000     -1.00750000000000     -3.28000000000000
H            -1.35050000000000     -1.28060000000000     -2.95440000000000
C            -0.31099999999999     -0.94090000000002     -4.80530000000000
C            -0.66810000000000     -2.25270000000001     -5.49310000000000
H            0.68699999999999     -0.60960000000001     -5.13360000000000
H            -1.01360000000000     -0.15630000000000     -5.13610000000000
H            -0.61210000000000     -2.11770000000000     -6.58479999999999
H            0.08610000000000     -3.01830000000000     -5.24680000000000
H            0.31270000000000     -1.83000000000000     -2.94360000000000
H            -0.01570000000000     1.30660000000000     -1.36560000000000
H            1.07159999999999     0.59120000000000     -2.97560000000000
H            -0.59140000000001     1.08330000000000     -3.09580000000000
C            -2.04980000000003     -2.78670000000000     -5.13359999999999
H            -2.06280000000000     -3.10020000000000     -4.07929999999999
H            -2.78680000000001     -1.96960000000000     -5.21300000000000
C            -2.46590000000002     -3.95380000000001     -6.01320000000001
H            -3.44769999999998     -4.35190000000000     -5.73440000000002
H            -2.51370000000001     -3.65549999999999     -7.06820000000001
H            -1.74160000000001     -4.77530000000000     -5.94040000000000
C            0.00460000000000     -0.00000000000001     1.55500000000000
C            -1.21137897224079     0.11160482602646     2.24213297657669
C            -1.21065844496071     0.18542614713163     3.63421334922445
H            -2.13298681639533     0.29170509891300     4.18714463906891
C            0.00879112612649     0.13213648196995     4.30124899808033
H            0.01167653876162     0.19175756632283     5.38063079643303
C            1.22575028288037     0.01915265771357     3.63689191794834
H            2.15154358390355     -0.01059484578474     4.19343996485461
C            1.22225586095215     -0.03046418727640     2.24373029137718
C            2.29123629148716     -0.09968990676911     1.28025100153823
C            4.30494703256538     -0.38241189533506     0.37562562461608
H            4.70306544501721     -1.39883778986356     0.28957596631465
H            5.13847065893334     0.32121106796370     0.41244038558221
C            3.27619166291440     -0.05814481811622     -0.73280151415751
H            3.22699072818232     -0.86696326415441     -1.47171540510968
C            3.56074523879373     1.25696939248950     -1.48879107805504
H            2.73331512070206     1.39216767592018     -2.18940961118774
C            3.57247762870001     2.46632671921948     -0.55871819445609
H            4.38232010539933     2.41034580415311     0.16509058332290
H            2.62675267015104     2.52979643772336     -0.02427763817717
H            3.70145837598916     3.37578933308832     -1.14034102595966
C            4.85467595285153     1.14755758634007     -2.29196204399487
H            4.98932355591940     2.03847293585020     -2.90045011504282
H            4.82437729312626     0.28354276776394     -2.95266338333366
H            5.72042832659963     1.04960374460326     -1.64081712124981
C            -2.28574229656758     0.12208234931212     1.28254684519121
C            -4.29728534865537     0.33645335585884     0.37010935995899
H            -4.57855775700792     1.38387675161176     0.20774271938902
H            -5.20076488727935     -0.26804811302984     0.44182373712775
C            -3.29349199335877     -0.15725990986735     -0.68803653992616
H            -3.31518767113430     0.46028907539495     -1.59024776416764
C            -3.50142446399932     -1.63597947242204     -1.09010750933783
H            -2.60535276126638     -1.92924477497058     -1.64474186505236
C            -3.60900560841220     -2.56422565188127     0.11769023214178
H            -2.74644137419215     -2.44469780366026     0.77043720609893
H            -3.63960831117750     -3.59902481227272     -0.21659726489839
H            -4.50907133758101     -2.37188486307524     0.69696024406622
C            -4.71022902648774     -1.77998323165438     -2.00994706104801
H            -4.81606250764636     -2.81436807215116     -2.32834437270353
H            -4.59430702722958     -1.15955707340142     -2.89579167440407
H            -5.62629625506120     -1.48523244254658     -1.50253596343440
N            2.01990000000138     -0.00000000000125     0.00000000000050
N            -2.01990000000032     0.00000000000048     0.00000000000072
O            3.58288872976171     -0.28390436255615     1.59638041280231
O            -3.58608359204289     0.24768620571451     1.60014538666923

B 1 12 F
B 1 2 F
B 2 12 F

C O N H 0
6-31G**
******
Ir 0
SDD
******

Ir 0
SDD

--Link1--
%nprocshared=12
%mem=24GB
%oldchk=TS-CH-Add-1-2
# opt(ts,readfc,nofreeze,noeigentest) guess=read geom=allchk freq int=grid=ultrafine M06 gen pseudo=read

C O N H 0
6-31G**
******
Ir 0
SDD
******

Ir 0
SDD


