%nprocshared=12
%mem=24GB
# opt int=grid=ultrafine M06 gen pseudo=read

Title

0 1
Ir    0.206200000000     -0.089500000000      0.127400000000
C    -1.179000000000      1.242900000000      1.206400000000
C    -2.582500000000      1.616700000000      0.729400000000
H    -3.114900000000      2.134700000000      1.547200000000
C    -2.630900000000      2.508000000000     -0.502700000000
C    -4.037900000000      2.856300000000     -0.974300000000
H    -2.096200000000      2.006300000000     -1.326500000000
H    -2.069500000000      3.438900000000     -0.305000000000
H    -3.978700000000      3.395200000000     -1.933200000000
H    -4.590600000000      1.925000000000     -1.188500000000
H    -3.183100000000      0.718000000000      0.514000000000
H    -0.674500000000      0.633100000000     -0.918200000000
H    -0.661600000000      2.191500000000      1.422900000000
H    -1.279300000000      0.749800000000      2.191200000000
C    -4.846200000000      3.698400000000      0.004400000000
H    -5.003500000000      3.139200000000      0.937600000000
H    -4.259800000000      4.588400000000      0.282400000000
C    -6.189100000000      4.119000000000     -0.569400000000
H    -6.772400000000      4.716600000000      0.139800000000
H    -6.059000000000      4.716500000000     -1.480900000000
H    -6.791900000000      3.242300000000     -0.839500000000
H    -1.063500000000     -2.065100000000      0.121200000000
H     1.705700000000     -1.431100000000     -0.570500000000
H     1.985800000000      1.415400000000     -0.036300000000

t[corelesslist] 0
6-31G**
******
Ir 0
SDD
******

Ir 0
SDD
