%nprocshared=12
%mem=24GB
# opt int=grid=ultrafine M06 gen pseudo=read

Title

1 1
Ir    0.000000000000     -0.475900000000     -0.000100000000
H     0.001800000000     -1.908900000000      0.735100000000
H    -0.001800000000     -1.908900000000     -0.735300000000
H     0.000000000000      1.633300000000      0.000000000000
H     2.288800000000     -0.166800000000      0.076500000000
H    -2.288800000000     -0.166700000000     -0.076500000000

t[corelesslist] 0
6-31G**
******
Ir 0
SDD
******

Ir 0
SDD



