%nprocshared=12
%mem=24GB
# opt int=grid=ultrafine M06 gen pseudo=read

Title

0 1
Ir            -0.00000000000004     -0.00000000000000     -0.31210000000000
P            2.28530000000005     -0.00000000000013     0.00000000000017
C            0.00000000000065     -0.00000000000003     1.70910000000005
C            2.31873063855534     1.39937108535032     4.32882771916191
H            2.28138619825690     1.79194035929714     5.33563867996284
C            4.18898127918641     -3.52416562812290     0.85444909155397
H            4.41606497384342     -4.11570038041054     1.72951562307658
C            3.54037362295242     1.34530674749684     3.66396185112124
H            4.44512893186091     1.66868217816545     4.15633959536520
C            4.72257387075859     1.02235304513521     -1.08787371585184
H            5.18356254524247     0.06519646603490     -0.88695374872234
C            2.80455212210218     2.46860498715983     -1.04296244134901
H            1.76020026419095     2.61769579950370     -0.79305090544998
C            3.55225784957321     3.48944538908019     -1.59592572725089
H            3.09878865856469     4.45066686388451     -1.79016424193782
C            1.15585939481227     0.97927984086872     3.72378594622522
H            0.21651480974131     1.08799264398162     4.24392492805462
C            4.55161415703200     -3.98073628589062     -0.40194896628406
H            5.06416331698471     -4.92563893258022     -0.50786069862107
C            1.16130332160483     0.46391122818126     2.41058870428005
C            3.59273660844367     -2.01985750588355     -1.39065602476259
H            3.35067007891863     -1.42978449964075     -2.26629400165651
C            3.24723361749011     -1.54330555462166     -0.12766637905601
C            3.53421515562234     -2.31331967498443     0.99358722243446
H            3.24249889064472     -1.95470944464455     1.97035134786782
C            4.24959936180070     -3.22778481171150     -1.52620619509857
H            4.52436641633688     -3.58698563033447     -2.50777491585002
C            4.88714805868348     3.27604242408635     -1.90396493676233
H            5.47466840924154     4.06965530393170     -2.34178388033731
C            3.38207550330250     1.22827814449930     -0.78433678912366
C            5.46784422613152     2.04501410320861     -1.64885887245384
H            6.50937218213906     1.88038213489685     -1.88553140696572
C            3.57392323885418     0.90846506951600     2.35057792464772
H            4.50589257062429     0.90093766627810     1.80027030904273
C            2.41017100341427     0.48220127932157     1.73704616809756
P            -2.28529999999984     -0.00000000000013     0.00000000000066
C            -2.31879059814168     -1.39918024602937     4.32887912719639
H            -2.28145564817894     -1.79171715683971     5.33570290250080
C            -4.18852934540098     3.52450048326125     0.85402458822211
H            -4.41526135416328     4.11632587912297     1.72898313115083
C            -3.54044060860790     -1.34506391537450     3.66403031541714
H            -4.44521027256671     -1.66835791144688     4.15643522849589
C            -4.72286443406670     -1.02252657656982     -1.08686418025838
H            -5.18406069464663     -0.06570999885486     -0.88478651061354
C            -2.80425668126139     -2.46807054873358     -1.04460634703040
H            -1.75965132421861     -2.61697365577826     -0.79563623911994
C            -3.55198256596240     -3.48872524763185     -1.59789797636455
H            -3.09827484871507     -4.44958933281988     -1.79335269791510
C            -1.15590252784697     -0.97918398850745     3.72380370100746
H            -0.21655649977059     -1.08793812465168     4.24393154197334
C            -4.55168163295151     3.98064850968331     -0.40237903624565
H            -5.06426343894723     4.92552098302879     -0.50839879219581
C            -1.16132900104224     -0.46386039728592     2.41058861650173
C            -3.59329301540405     2.01939457854578     -1.39081888681148
H            -3.35160569280156     1.42901820945583     -2.26635385932641
C            -3.24725767387587     1.54327723419039     -0.12781079863724
C            -3.53373336535095     2.31368659809234     0.99330208216269
H            -3.24163897312454     1.95537822708493     1.97006394250749
C            -4.25017273633584     3.22729664841455     -1.52650650580602
H            -4.52532295511410     3.58617556075986     -2.50808447264744
C            -4.88717910790478     -3.27557446656368     -1.90475688783711
H            -5.47471679812211     -4.06903282173736     -2.34283298064166
C            -3.38204938449531     -1.22818481541414     -0.78451599043001
C            -5.46816533185169     -2.04499216331726     -1.64814977507588
H            -6.50994763728901     -1.88057648575589     -1.88386178618840
C            -3.57398019650992     -0.90828123482175     2.35062711048528
H            -4.50595679305330     -0.90073195358037     1.80033551126458
C            -2.41021166455230     -0.48211517155229     1.73706163444859

C P H 0
6-31G**
******
Ir 0
SDD
******

Ir 0
SDD


