%nprocshared=12
%mem=24GB
%chk=TS-1olefin-disso
# opt=(modredundant) int=grid=ultrafine M06 gen pseudo=read

Title

0 1
Ir            -0.00409999999996     -0.00799999999999     -0.29060000000005
C            -0.06269999999921     0.40949999999993     -3.03609999999998
C            -0.55669999999816     -0.68530000000022     -3.62760000000045
H            -1.48990000000004     -0.59790000000000     -4.19479999999989
H            0.90840000000008     0.39160000000004     -2.53220000000033
C            0.10320000000005     -2.02019999999965     -3.67120000000020
H            0.90409999999957     -2.05870000000002     -2.92280000000004
H            -0.61709999999974     -2.80579999999985     -3.39270000000017
C            0.68210000000101     -2.33360000000027     -5.04960000000021
H            1.38720000000030     -1.53490000000011     -5.33200000000009
H            -0.11499999999996     -2.31610000000006     -5.81040000000012
C            1.39619999999982     -3.67630000000088     -5.07900000000057
H            0.68959999999956     -4.46880000000011     -4.78919999999957
H            2.18000000000072     -3.67720000000000     -4.30460000000075
H            -0.06590000000002     1.67850000000000     -0.25540000000000
H            0.04210000000001     -1.69950000000000     -0.34360000000001
C            2.00209999999812     -3.98780000000062     -6.43650000000024
H            2.51549999999933     -4.95510000000036     -6.44429999999990
H            1.22990000000050     -4.01479999999994     -7.21559999999818
H            2.73149999999982     -3.22130000000048     -6.72699999999969
H            -0.55459999999986     1.37560000000049     -3.11279999999993
P            2.28530000000070     -0.00000000000003     0.00000000000015
C            -0.00000000000104     -0.00000000000003     1.70910000000001
C            2.30389719712505     1.41168237337105     4.31931394191353
H            2.25968274261026     1.82257333054045     5.31813852666791
C            4.21679243704061     -3.53557582787847     0.71302248339884
H            4.45900989794608     -4.15681903018933     1.56314579020659
C            3.52957583906150     1.34700869511007     3.66165906051166
H            4.43028480340383     1.68094552158484     4.15414007253689
C            4.76564898485409     1.00529464396679     -0.93717926978563
H            5.20227338937150     0.06143632081120     -0.64087267416130
C            2.85711052531231     2.44417405758511     -1.16932236274896
H            1.79737622844596     2.61053317071052     -1.03659704812327
C            3.66208290799234     3.43240287921205     -1.70399053599381
H            3.23041518571406     4.37748220175846     -2.00027296690404
C            1.14472424809290     0.98479099635503     3.71287599094465
H            0.20086200848339     1.10560158010606     4.22223794277077
C            4.58285004967843     -3.93420159087063     -0.56195731529576
H            5.11334060548928     -4.86401621646130     -0.70636570767612
C            1.16133695383053     0.45405473689198     2.40521333863408
C            3.59109864773777     -1.95126958477906     -1.47010246612239
H            3.34422615279510     -1.32342070915218     -2.31834614828976
C            3.24144338893059     -1.53644209683630     -0.18732075525520
C            3.54077754161793     -2.34307429625503     0.90266524846125
H            3.24459979989561     -2.02714177783972     1.89343474810765
C            4.26430216326169     -3.14315135904168     -1.65535179231808
H            4.54437874400050     -3.45799700144215     -2.65077884098526
C            5.02062133523785     3.20976993022915     -1.85781847622706
H            5.65243596743527     3.97995648771518     -2.27553235642906
C            3.39921629023336     1.22211404511376     -0.78514800013090
C            5.56827411600625     1.99721479463036     -1.47226959956026
H            6.62867316124453     1.82326196050191     -1.58652269706451
C            3.57363425242233     0.89392657795392     2.35483580658112
H            4.50846043778212     0.88513033450539     1.81042711055452
C            2.41251760651237     0.46056497695962     1.73759379572142
P            -2.28530000000037     -0.00000000000028     -0.00000000000217
C            -2.30784004381695     -1.38247933339082     4.33121589018182
H            -2.26600612044729     -1.78435085773760     5.33381014395097
C            -4.34055641748760     3.47920353058225     0.67160647291675
H            -4.63735431259731     4.08689943629576     1.51424498745035
C            -3.53260639291251     -1.31793974648031     3.67205976746254
H            -4.43495480810239     -1.64395628125699     4.16691467636922
C            -4.75747513994448     -1.01990889752179     -0.95694438284666
H            -5.19697075192148     -0.06515970266935     -0.70319426378918
C            -2.85511313804911     -2.47610799441300     -1.09423763019225
H            -1.79954094134420     -2.63959290089111     -0.93372261147614
C            -3.65352371398689     -3.47865450463438     -1.61104941927132
H            -3.22214134790103     -4.43748572438208     -1.86122512124058
C            -1.14660108928749     -0.96559504563586     3.72168390866882
H            -0.20338611197408     -1.08507586303082     4.23266524981051
C            -4.67552736284273     3.86956785730298     -0.61428577204001
H            -5.23666622538823     4.77862369030288     -0.77443358839649
C            -1.16146649603172     -0.44508370127077     2.41000382257923
C            -3.57448686692661     1.93186404974782     -1.49245840126889
H            -3.26646499760024     1.31641648977820     -2.32918095268901
C            -3.25763969296768     1.52361365286693     -0.19924887852934
C            -3.62756059984115     2.31162090671868     0.88231292911421
H            -3.35849725961765     2.00202723804194     1.88269526245978
C            -4.28630166282606     3.09746908216462     -1.69848065474068
H            -4.54098795028867     3.40678598239237     -2.70221861851164
C            -5.00695142257203     -3.25470198722290     -1.80433913043500
H            -5.63417673575685     -4.03607652248773     -2.20821561474556
C            -3.39637631015736     -1.23776282820751     -0.76638542721649
C            -5.55440756353918     -2.02592282797612     -1.47510480320787
H            -6.61079990262898     -1.84987284424175     -1.61968515119185
C            -3.57432238920662     -0.87467068985517     2.36163445138080
H            -4.50900441709150     -0.86544524584558     1.81684460623818
C            -2.41133642582350     -0.45093292755123     1.74088656239552

B 1 2 F
B 1 3 F
B 2 3 F

C P H 0
6-31G**
******
Ir 0
SDD
******

Ir 0
SDD

--Link1--
%nprocshared=12
%mem=24GB
%oldchk=TS-1olefin-disso
# opt(ts,readfc,nofreeze,noeigentest) guess=read geom=allchk freq int=grid=ultrafine M06 gen pseudo=read

C P H 0
6-31G**
******
Ir 0
SDD
******

Ir 0
SDD


