%nprocshared=12
%mem=24GB
%chk=TS-BHT-1-2
# opt=(modredundant) int=grid=ultrafine M06 gen pseudo=read

Title

0 1
Ir            -0.01030000000000     -0.12270000000001     -0.41600000000003
C            0.01179999999919     -0.03450000000015     -2.61920000000010
C            -0.28320000000029     -1.41749999999994     -2.36560000000000
H            -1.34689999999930     -1.66200000000017     -2.41570000000007
C            0.55790000000000     -2.51270000000027     -2.99190000000020
C            0.23589999999931     -3.93200000000004     -2.53910000000008
H            1.62100000000040     -2.28999999999980     -2.85740000000028
H            0.37859999999977     -2.43800000000002     -4.07760000000020
H            1.07690000000032     -4.59960000000000     -2.78099999999996
H            0.14309999999989     -3.95749999999998     -1.43979999999977
H            -0.09140000000000     -1.84430000000001     -0.87200000000000
H            -0.02800000000000     1.48720000000000     -0.22769999999999
H            0.98119999999990     0.19450000000017     -3.06679999999985
H            -0.79029999999973     0.59319999999986     -3.00619999999997
C            -1.03339999999960     -4.49669999999975     -3.16719999999929
H            -1.86110000000007     -3.78099999999995     -3.04679999999992
H            -0.88159999999987     -4.59499999999993     -4.25279999999961
C            -1.43050000000035     -5.83579999999953     -2.57039999999963
H            -2.32120000000014     -6.25389999999997     -3.05160000000000
H            -0.62049999999977     -6.56910000000009     -2.67319999999993
H            -1.64560000000016     -5.73680000000004     -1.49819999999976
P            2.28530000000005     0.00000000000002     0.00000000000022
C            -0.00000000000110     -0.00000000000018     1.70909999999982
C            2.27878450872149     1.52069300726688     4.28453831147890
H            2.23461717869905     1.95955192744655     5.27164164104263
C            4.20031314950061     -3.55417330186675     0.65574515260182
H            4.35215302592574     -4.24014779382206     1.47662840724219
C            3.50850270765268     1.42057583962239     3.63760161053144
H            4.41064274418385     1.75447764792866     4.12782349003821
C            4.72416695905056     1.15405637782373     -0.85629445344909
H            5.21693265623268     0.28287736486147     -0.44631977098642
C            2.72537611385940     2.38242871454909     -1.36121408971006
H            1.64807751360210     2.45623663991861     -1.33033149155109
C            3.48395963756298     3.38372673151173     -1.93893783409504
H            2.99747410410231     4.25062926314907     -2.36229647500980
C            1.12038841960652     1.08795883139856     3.68287439259050
H            0.17423484341484     1.23007837336735     4.18320519572220
C            4.70715505743060     -3.85520577146211     -0.59815024643258
H            5.25334835005965     -4.77388932203140     -0.75470271257438
C            1.14025174874100     0.51038411694598     2.39409010744348
C            3.81670517965876     -1.80193237362164     -1.45336428944840
H            3.67086862663686     -1.10508945371218     -2.26954158315595
C            3.31775705288136     -1.48766796192477     -0.19079623511086
C            3.49902643763796     -2.37884529955505     0.85967064546627
H            3.09390705575567     -2.13733345992587     1.83315703199069
C            4.51234749087605     -2.97834860798663     -1.65428868217951
H            4.90356102012282     -3.21371160501037     -2.63399640257187
C            4.86397731313750     3.27371776517787     -1.97728896817672
H            5.45883269421594     4.05335458247719     -2.43037911474278
C            3.33580327161812     1.25818290740118     -0.81648120382238
C            5.47994250854886     2.15788570851942     -1.43481259498917
H            6.55661958613218     2.06845139723813     -1.46311925820484
C            3.55576329782993     0.93450810234467     2.34283597864190
H            4.49493796282024     0.90359757625266     1.80775849732485
C            2.39392409212784     0.49954281575575     1.72927350854131
P            -2.28530000000021     0.00000000000049     -0.00000000000008
C            -2.31325146220835     -1.32201552101262     4.36234992966954
H            -2.27591049783394     -1.69734150278110     5.37567150638521
C            -4.44165663290374     3.37637950184178     0.88186637170481
H            -4.87281902907676     3.84342796049487     1.75562489609245
C            -3.52909162144543     -1.30280422802471     3.68534365789433
H            -4.43061693747472     -1.64048278692539     4.17403915563672
C            -4.57936124151475     -0.85410104581729     -1.48221567050402
H            -4.80920233932664     0.18412719825419     -1.67512320911308
C            -3.19485830323724     -2.53859742915988     -0.47461860570750
H            -2.32815920190603     -2.79673635225597     0.12077835804720
C            -4.02199589987255     -3.52550560240004     -0.97139027851520
H            -3.80835884700878     -4.56469090165279     -0.76883708299245
C            -1.15490480317969     -0.88697926384333     3.75951527362207
H            -0.21670032864951     -0.96710205582279     4.28817200153206
C            -4.57622687777988     3.97262745707192     -0.36029058035019
H            -5.11765141886343     4.90215397926829     -0.45815211762675
C            -1.16113437931374     -0.41003029413212     2.43144035079458
C            -3.31433268364991     2.19174158895662     -1.35027752676335
H            -2.85104870526749     1.73261021983150     -2.21361957812546
C            -3.20169785590940     1.57279264809023     -0.10782863046067
C            -3.75516640691003     2.18182868659960     1.01159901847361
H            -3.64609179801458     1.72195903425869     1.98307066020068
C            -4.00574694240711     3.38151065809289     -1.47680590574566
H            -4.09931859350377     3.85247381826965     -2.44479004527064
C            -5.13060806192910     -3.18056041669921     -1.72971129192347
H            -5.77920396356429     -3.95105631985245     -2.11983518279759
C            -3.46923755838132     -1.19364017480524     -0.72016307680883
C            -5.40534646006925     -1.84771204781788     -1.98197571542107
H            -6.27155177050639     -1.57671384029876     -2.56826992055479
C            -3.56363360508891     -0.88430868511100     2.36551404019398
H            -4.49320930971031     -0.90192514554048     1.81081191914939
C            -2.39972527001807     -0.46178841711278     1.74682494548760

B 1 2 F
B 2 3 F
B 3 11 F
B 11 1 F

C P H 0
6-31G**
******
Ir 0
SDD
******

Ir 0
SDD

--Link1--
%nprocshared=12
%mem=24GB
%oldchk=TS-BHT-1-2
# opt(ts,readfc,nofreeze,noeigentest) guess=read geom=allchk freq int=grid=ultrafine M06 gen pseudo=read

C P H 0
6-31G**
******
Ir 0
SDD
******

Ir 0
SDD


