%nprocshared=12
%mem=24GB
%chk=TS-CH-Add-1-2
# opt=(modredundant) int=grid=ultrafine M06 gen pseudo=read

Title

0 1
Ir            -0.00039999999999     0.10810000000000     -0.34670000000000
C            0.06130000000003     0.31669999999999     -2.63970000000000
C            -0.34020000000002     -1.00749999999999     -3.28000000000000
H            -1.35050000000001     -1.28059999999998     -2.95440000000000
C            -0.31100000000001     -0.94090000000000     -4.80530000000000
C            -0.66810000000001     -2.25269999999997     -5.49310000000001
H            0.68699999999998     -0.60959999999998     -5.13360000000000
H            -1.01360000000000     -0.15630000000002     -5.13609999999999
H            -0.61209999999998     -2.11769999999999     -6.58479999999999
H            0.08609999999999     -3.01829999999996     -5.24679999999999
H            0.31269999999998     -1.83000000000002     -2.94360000000001
H            -0.01569999999997     1.30660000000001     -1.36559999999999
H            1.07159999999999     0.59120000000002     -2.97560000000000
H            -0.59139999999999     1.08329999999999     -3.09579999999998
C            -2.04980000000004     -2.78669999999998     -5.13359999999998
H            -2.06280000000006     -3.10019999999995     -4.07929999999999
H            -2.78680000000008     -1.96959999999998     -5.21299999999997
C            -2.46590000000005     -3.95379999999999     -6.01319999999999
H            -3.44770000000009     -4.35189999999994     -5.73440000000000
H            -2.51370000000003     -3.65549999999995     -7.06819999999997
H            -1.74160000000007     -4.77529999999996     -5.94039999999999
P            2.28530000000018     -0.00000000000018     0.00000000000009
C            -0.00000000000001     -0.00000000000001     1.70910000000002
C            2.32464445067019     1.38902504461646     4.33224566182869
H            2.29021467762105     1.77929682056480     5.34022120831832
C            4.09865206856641     -3.59804367464401     0.79145897169711
H            4.45348068879415     -4.15018659654316     1.64977848860104
C            3.54317603734087     1.34093707214648     3.66242101600819
H            4.44823627586923     1.67113868776574     4.15002656453492
C            4.75110210209196     0.72492913246823     -1.24101371183881
H            5.08622242003423     -0.29466603516336     -1.11019405724973
C            3.07152660276936     2.42499125627299     -0.97949669975759
H            2.08175907723133     2.70452075607208     -0.63864449687508
C            3.90622174171495     3.34891337473342     -1.57653940485020
H            3.57849983976542     4.36978126982779     -1.70789091266193
C            1.16085658308216     0.96365620922712     3.73138788661328
H            0.22313831011864     1.06696477306204     4.25776006150877
C            4.20047277717052     -4.14866742156486     -0.47512409237956
H            4.63564796193666     -5.12879991080593     -0.60478597922454
C            1.16100048144969     0.45513915042662     2.41573757779691
C            3.18325718185067     -2.19136674713497     -1.41025251284509
H            2.81748969476741     -1.63210523321032     -2.26189773683881
C            3.09389177362764     -1.62616671413277     -0.13906087522098
C            3.54249082493890     -2.34187925131806     0.96362211435077
H            3.45672193203262     -1.91141595336761     1.95171422623800
C            3.73932173706538     -3.44456312356886     -1.57753328553656
H            3.81281955012656     -3.87715571844363     -2.56510448291497
C            5.16434745169236     2.96192023893556     -2.01318639426520
H            5.81724367901273     3.68029611095106     -2.48688258989981
C            3.48814269394041     1.10735549063870     -0.80619282893821
C            5.58326943585995     1.65330991165158     -1.84342370005529
H            6.56423893317516     1.35210792807376     -2.18223515554297
C            3.57489140745179     0.90232926746987     2.34855159641306
H            4.50420510387227     0.89909826043792     1.79279089527306
C            2.40985905592671     0.47752923860923     1.73848287604019
P            -2.28529999999971     0.00000000000004     0.00000000000036
C            -2.27781191994802     -1.50060343511908     4.30219885355469
H            -2.23243829504520     -1.92153160101022     5.29742415196566
C            -4.55940995606279     3.31227042371080     0.79988692764821
H            -4.89059329440381     3.86647640459618     1.66617206671569
C            -3.50134543528104     -1.44322009417202     3.64076167630254
H            -4.39965959477002     -1.79526343891172     4.12550193472425
C            -4.57627494761177     -1.22909040486410     -1.18873944899685
H            -5.10893022476928     -0.29591407765500     -1.07035434620201
C            -2.58129380058129     -2.54440716365378     -0.93331498208916
H            -1.54782482767374     -2.61315092331572     -0.61073614392249
C            -3.22101924091140     -3.63634288595026     -1.48487992443021
H            -2.69596254913072     -4.57404425100768     -1.59775106386611
C            -1.12414215941573     -1.04258747157543     3.70851690531232
H            -0.18071189756502     -1.14863270500287     4.22451537829968
C            -4.89740837586277     3.74747814847368     -0.47049264742972
H            -5.49564353712395     4.63812387487090     -0.59525019264976
C            -1.14245084636066     -0.49133883119652     2.40916871061899
C            -3.69333013212964     1.90772843943421     -1.42384579954363
H            -3.33747657149583     1.35721741142250     -2.28496269985742
C            -3.37244560506489     1.45129790516399     -0.14695449643422
C            -3.79517529103019     2.17020906213803     0.96432908491645
H            -3.52428888071300     1.83108736512028     1.95415569221646
C            -4.46047925928904     3.04528298139848     -1.58362732784566
H            -4.71647839746896     3.39084121113015     -2.57487260395010
C            -4.54092551357985     -3.52532595909251     -1.89641215202081
H            -5.04390099569398     -4.37538244181137     -2.33323767980892
C            -3.25211000910872     -1.33261228196997     -0.78255715115627
C            -5.21379797936950     -2.32487121273961     -1.74552596122433
H            -6.24390995288881     -2.24048342425563     -2.06094833649343
C            -3.54655655765160     -0.96841608325201     2.34019564741443
H            -4.48043870848384     -0.95903391552879     1.79238336751060
C            -2.39029315027096     -0.51298669652812     1.73428375204545

B 1 12 F
B 1 2 F
B 2 12 F

C P H 0
6-31G**
******
Ir 0
SDD
******

Ir 0
SDD

--Link1--
%nprocshared=12
%mem=24GB
%oldchk=TS-CH-Add-1-2
# opt(ts,readfc,nofreeze,noeigentest) guess=read geom=allchk freq int=grid=ultrafine M06 gen pseudo=read

C P H 0
6-31G**
******
Ir 0
SDD
******

Ir 0
SDD


