%nprocshared=12
%mem=24GB
# opt int=grid=ultrafine M06 gen pseudo=read

Title

-1 1
Ir            -0.01040000000000     -0.11320000000000     -0.40740000000000
C            0.06620000000000     0.48600000000000     -2.55360000000000
C            -0.31960000000000     -0.86340000000000     -2.54700000000000
H            -1.39010000000000     -1.06660000000001     -2.62170000000000
C            0.52180000000000     -1.93679999999999     -3.19219999999999
C            0.14450000000000     -3.37680000000000     -2.86290000000000
H            1.57970000000000     -1.76080000000000     -2.97630000000001
H            0.42400000000000     -1.80530000000000     -4.28520000000000
H            0.98629999999999     -4.04320000000000     -3.10940000000000
H            -0.01140000000000     -3.47390000000000     -1.77580000000000
H            0.05020000000000     -1.77280000000000     -0.14760000000000
H            -0.06350000000000     1.54970000000000     -0.26860000000000
H            1.07649999999999     0.73779999999999     -2.88100000000000
H            -0.65900000000000     1.27470000000000     -2.74000000000000
C            -1.09019999999999     -3.86790000000000     -3.60890000000000
H            -1.92520000000001     -3.16840000000000     -3.45260000000000
H            -0.88500000000002     -3.84910000000001     -4.69020000000000
C            -1.50759999999999     -5.26500000000000     -3.18279999999998
H            -2.38169999999998     -5.62260000000000     -3.73799999999999
H            -0.69380000000003     -5.98410000000000     -3.34260000000000
H            -1.75699999999998     -5.28950000000000     -2.11390000000000
P            2.29239999999993     0.00000000000005     0.00000000000001
P            -2.29239999999999     -0.00000000000006     0.00000000000004
O            -2.74082623712354     0.50038669453964     1.47160893642906
C            0.13230000000000     -0.00000000000000     1.95369999999999
C            1.29954788779883     -0.57806089245644     2.47241176363630
C            1.45802666465177     -0.78534097700783     3.83567163401903
C            0.48190697363926     -0.38018816258969     4.72498095182819
C            -0.62224534413988     0.28937716865455     4.23795995018031
C            -0.78613694830431     0.48661836497051     2.86975833950933
C            2.44037686603317     -0.94138518362423     1.57228336154779
C            3.60914513838365     -1.00102184041712     -1.01894067321455
C            3.77809369810430     -0.35116046140460     -2.39499850101880
C            3.02750559219703     -2.42013668764901     -1.14372554500243
C            5.01484352924650     -1.19682736113451     -0.43650179798213
C            3.05876700930428     1.70044708898543     0.40192060563563
C            2.70582320990121     2.66411161988452     -0.73023275003421
C            4.57364738531582     1.69893154491032     0.59626676242438
C            2.42341029145376     2.20704926955980     1.69687515888603
C            -1.95928228522942     1.26793046312295     2.36672290389229
C            -3.35878141452504     -1.52724994122740     0.14189764235013
C            -2.68375933623518     -2.51996749195079     1.07899319909456
C            -3.68151316330282     -2.17354281712811     -1.19380258739219
C            -3.38576039834065     1.19201693151119     -0.97908405325945
C            -2.86606551857652     2.60945058345253     -0.74911700489120
C            -4.84467637629877     1.12828296936337     -0.53505783059623
H            2.35860630254875     -1.26501404846271     4.19744550383487
H            0.59803371030050     -0.56196549706191     5.78326569399209
H            -1.36968890590684     0.66690684997611     4.92137068749999
H            2.37275457052861     -1.99793091142679     1.29978831223573
H            3.40098632444749     -0.77000487424026     2.06692235702433
H            4.32758494208298     -1.01447521252069     -3.06437659093074
H            2.82162987826830     -0.12567355613373     -2.85582564036995
H            4.34062000246185     0.57734038157084     -2.31830243789693
H            3.43843738671869     -3.07096064711036     -0.37411275334975
H            1.94792444654143     -2.42184444519818     -1.03429805945657
H            3.28650367375025     -2.85988483547070     -2.10632972557071
H            4.99112318688259     -1.49189241404432     0.60833353417376
H            5.48739583810908     -2.00564531819861     -0.99653055189249
H            5.65039919201199     -0.32687495691932     -0.54780211060535
H            3.08548458672361     3.65969310379954     -0.50314825410028
H            3.13388391808610     2.34372654870615     -1.67711548672411
H            1.62726375305002     2.72388440892230     -0.84373463525236
H            4.89577690242954     0.91163962698194     1.27174702700140
H            5.09574054246247     1.60292061854318     -0.35118399655402
H            4.87142380239506     2.65201430400790     1.03333301181165
H            2.72891520211404     3.23804266365742     1.87347911502519
H            1.33962500606603     2.17477600401097     1.63288232362784
H            2.73478277210597     1.61030228255895     2.55127688012676
H            -1.59937933245556     2.18491674456968     1.88518102568480
H            -2.63305523042520     1.53750466245592     3.18751101983756
H            -4.27705505322932     -1.17435076754374     0.62411374360653
H            -2.45187071499610     -2.04927253825935     2.03248405784075
H            -3.33348546627327     -3.37547917432518     1.25915994791290
H            -1.75083968880521     -2.87308740574479     0.64718567908253
H            -4.44584689961781     -2.93967302286167     -1.06548509070939
H            -4.04728376074197     -1.44436182477727     -1.91528391231404
H            -2.79104350343499     -2.64929182412959     -1.59362491227632
H            -3.30036564142380     0.94439817893954     -2.04164773487422
H            -1.79010934864612     2.66342974615513     -0.89735377967643
H            -3.34764912759895     3.31232893125249     -1.42771852519195
H            -3.08570534099807     2.92241656692261     0.27057523940393
H            -4.90318213667035     1.18383047284471     0.55064755167743
H            -5.38870772006186     1.97942146225046     -0.94361926952908
H            -5.34097265092061     0.22069396127541     -0.86656428767229

C P O H 0
6-31G**
******
Ir 0
SDD
******

Ir 0
SDD


