%nprocshared=12
%mem=24GB
# opt int=grid=ultrafine M06 gen pseudo=read

Title

-1 1
Ir            -0.00000000000001     -0.00000000000000     -0.31209999999999
P            2.29240000000031     0.00000000000016     0.00000000000000
P            -2.29239999999967     -0.00000000000050     -0.00000000000012
O            -2.85355770038989     0.41262567467261     1.45824136956898
C            0.13230000000006     -0.00000000000006     1.95369999999997
C            1.31276292511512     -0.53899858332873     2.49540514977173
C            1.46553826022288     -0.69765857992692     3.86461381498145
C            0.45799947562486     -0.31830511680485     4.73320704543560
C            -0.68548775524590     0.26612845214153     4.22390227951503
C            -0.84063252922146     0.44036724611241     2.85425143713870
C            2.45720345568052     -0.92756913508904     1.59193931273358
C            3.30307585746101     -1.08601039597928     -1.19525788097793
C            3.57034920257100     -0.30684508737237     -2.48285030961709
C            2.32714385967070     -2.22131722250411     -1.52761753335949
C            4.60154599966759     -1.68316258031563     -0.66113823213379
C            3.19823623477804     1.63062105296150     0.34570137568589
C            2.83035578129384     2.59602496924650     -0.78275484488971
C            4.71223801668111     1.53376811623339     0.49920675106504
C            2.59227902692801     2.18010408476234     1.63926388211348
C            -2.05637908566750     1.17615107871438     2.35622444032750
C            -3.07609322109756     -1.68662556355984     -0.06101698715247
C            -2.26866380179396     -2.57015243145431     0.88328908814562
C            -3.03166554909649     -2.23226661977119     -1.48131803367926
C            -3.43311942575618     1.03206564710570     -1.08438315335139
C            -2.97366878772024     2.48084007461096     -0.94059171505994
C            -4.90808488760276     0.89135839787946     -0.73410285847586
H            2.38199020932747     -1.11923174720822     4.25817541760792
H            0.57365089814477     -0.45793958883928     5.79821693687366
H            -1.46254593557280     0.60221697495675     4.89726276756224
H            2.36937285429390     -1.99059240384423     1.34884725680256
H            3.42147450056489     -0.77249687138638     2.08349654907545
H            3.88717913567238     -0.98384966552510     -3.27680181202930
H            2.66478208753895     0.20173256585000     -2.81441084920607
H            4.35508619032970     0.43325492064598     -2.34710351308539
H            2.14069357447711     -2.85136470284670     -0.66039029328150
H            1.36924350007458     -1.80999030241115     -1.85708329019981
H            2.72003525730304     -2.84985597809005     -2.32639897379990
H            4.43238741001340     -2.24314580313736     0.25496365158338
H            5.01318439439508     -2.36997059168534     -1.40179645965016
H            5.34736783012092     -0.91897760417483     -0.46698101769241
H            3.15151825771907     3.60716733368713     -0.53545028756890
H            3.29305478415755     2.31813148938134     -1.72559736126265
H            1.74806794927641     2.60308904760301     -0.91259563300523
H            4.98503474723996     0.77702009557342     1.23160356199288
H            5.19857618533583     1.30406829935001     -0.44576437253794
H            5.10226638578063     2.49049896904730     0.84708732462447
H            2.91788400400300     3.20803531380077     1.79481539525289
H            1.50466666591862     2.16062684019409     1.57954649930489
H            2.89252174671885     1.59464077280322     2.50360857944431
H            -1.73286472572940     2.10530194823193     1.87176428319515
H            -2.72187961602894     1.42594888301286     3.18859775648458
H            -4.10821250559957     -1.62283251140162     0.29648398844530
H            -2.30832375754047     -2.17498331516596     1.89565383850102
H            -2.64932934788654     -3.59063079115079     0.88844158279949
H            -1.22282189240714     -2.58183801585409     0.57468943965511
H            -3.36805541230290     -3.26807904434965     -1.50716987636418
H            -3.66242199021169     -1.65367926509156     -2.15356503657765
H            -2.00886549637200     -2.20125930443341     -1.85765830891821
H            -3.26515666325227     0.71438243849480     -2.11981486913407
H            -1.89421437950731     2.55355729299531     -1.08183325502703
H            -3.46487508299377     3.12516134240856     -1.66908664683502
H            -3.21227161558045     2.84954519756119     0.05559346986552
H            -5.04786760930073     1.01658205769454     0.33779792048699
H            -5.49267742095513     1.65351635714978     -1.24925158746856
H            -5.29490305137010     -0.08312997793374     -1.02294632102923

C P O H 0
6-31G**
******
Ir 0
SDD
******

Ir 0
SDD


