%nprocshared=12
%mem=24GB
# opt int=grid=ultrafine M06 gen pseudo=read

Title

-1 1
Ir            0.00000000000001     -0.00010000000000     -0.30910000000000
H            -0.02639999999999     0.73460000000002     -1.74220000000000
H            0.02630000000002     -0.73490000000001     -1.74210000000000
P            2.29239999999952     0.00000000000021     -0.00000000000015
P            -2.29239999999978     -0.00000000000006     0.00000000000018
O            -2.84525320704415     0.34167238505167     1.47766223565562
C            0.13229999999997     0.00000000000002     1.95370000000001
C            1.31632625841980     -0.51641576462423     2.50521139224744
C            1.47434091318419     -0.67989729046584     3.87488027126342
C            0.46485715145196     -0.31451560133195     4.74492571136905
C            -0.68404056774836     0.25789305280013     4.23463025019791
C            -0.83704856453118     0.42381684099030     2.86374946749407
C            2.47759548960328     -0.87481807402524     1.61421222505273
C            3.37968913299709     -1.08402389556017     -1.13369039029719
C            3.49302712144995     -0.40081133499187     -2.49532344851164
C            2.59730159903859     -2.39118141227389     -1.31575337564471
C            4.76699653716110     -1.44662267938263     -0.60275310018267
C            3.10214568509044     1.68865796461923     0.28857995463075
C            2.67511806595215     2.59726236891153     -0.86542355469523
C            4.62237841973963     1.67201700715898     0.41413279307844
C            2.50192133578731     2.24986235527148     1.57934732763424
C            -2.07004534316255     1.13362416325137     2.37147350841385
C            -3.14676768779093     -1.63904989877821     -0.14170505531364
C            -2.29753572505144     -2.62922709359814     0.64885846794033
C            -3.28131806333182     -2.07327155288972     -1.59348113068160
C            -3.34011911899440     1.15728475961305     -1.04179097206861
C            -2.76419109918514     2.56391174992731     -0.89145994061763
C            -4.81458314136588     1.13206163612847     -0.66181678835340
H            2.39839078736498     -1.09120018600987     4.26402042074964
H            0.58278773444824     -0.45308199194860     5.81040920866395
H            -1.46601832489387     0.59022514013098     4.90556387829531
H            2.45388705163990     -1.94904654220581     1.40086685122146
H            3.43285820225294     -0.65238365313244     2.10122230044654
H            3.88997913509690     -1.09639565083068     -3.23384077930826
H            2.51077323254711     -0.06915768163339     -2.82612709818246
H            4.16118222476296     0.45550819550236     -2.45490080669353
H            2.63121274055569     -3.00850567685696     -0.42088527869469
H            1.55414947283924     -2.18477851973533     -1.55443669758392
H            3.02700373206635     -2.97035708627947     -2.13181646732505
H            4.72126473518093     -1.81713003474705     0.41774877326280
H            5.18180602607230     -2.24080649336628     -1.22323935850012
H            5.45635697251207     -0.61134012869067     -0.63988231002973
H            3.01076920123964     3.61767354426402     -0.68419403950609
H            3.08878431241928     2.26493015248571     -1.81274046037798
H            1.58825570407533     2.59439442489178     -0.95152721075128
H            4.95543676556195     0.92691249037078     1.13336021970226
H            5.09659752689518     1.48026908600378     -0.54468697857141
H            4.96541141968931     2.64664942023200     0.76175233472474
H            2.80879972489255     3.28762545885077     1.70823124756493
H            1.41405147064721     2.21919003908473     1.54071800778902
H            2.82767615938284     1.69129132437196     2.45382292786773
H            -1.78206652200584     2.07737479977866     1.88989028499032
H            -2.73901610437887     1.36633083720509     3.20680050339033
H            -4.13087000208688     -1.54625520684708     0.33141250928894
H            -2.19121052327035     -2.29954120518221     1.68134795786237
H            -2.74720473410677     -3.62138820175865     0.64763451342399
H            -1.30248255964066     -2.69544930553303     0.20432213030495
H            -3.64736043266243     -3.09763204846433     -1.64825584772635
H            -3.97357808837864     -1.43566626788275     -2.13753129581193
H            -2.31012473751727     -2.02428448184062     -2.08337935181876
H            -3.20633928568007     0.83800041500669     -2.07935291322582
H            -1.68165075152506     2.54135532643721     -1.03510994957556
H            -3.19865923073637     3.24185375943141     -1.62468231778008
H            -2.97948556977264     2.95904417223003     0.10032230059598
H            -4.92931746147745     1.30394232483753     0.40681453566115
H            -5.35135232763728     1.91717867433792     -1.19314290257720
H            -5.27572336977550     0.17897865362003     -0.90760738599560

C P O H 0
6-31G**
******
Ir 0
SDD
******

Ir 0
SDD


