%nprocshared=12
%mem=24GB
%chk=TS-1olefin-disso
# opt=(modredundant) int=grid=ultrafine M06 gen pseudo=read

Title

-1 1
Ir            -0.00410000000000     -0.00800000000000     -0.29060000000000
C            -0.06270000000001     0.40950000000000     -3.03610000000000
C            -0.55669999999999     -0.68530000000000     -3.62760000000001
H            -1.48989999999998     -0.59789999999999     -4.19480000000001
H            0.90840000000001     0.39160000000000     -2.53220000000000
C            0.10320000000001     -2.02020000000001     -3.67120000000000
H            0.90410000000001     -2.05870000000001     -2.92280000000000
H            -0.61710000000000     -2.80580000000001     -3.39270000000001
C            0.68210000000001     -2.33360000000001     -5.04959999999999
H            1.38720000000000     -1.53490000000001     -5.33199999999999
H            -0.11499999999998     -2.31610000000002     -5.81039999999998
C            1.39620000000004     -3.67629999999999     -5.07899999999999
H            0.68959999999999     -4.46880000000000     -4.78919999999999
H            2.18000000000002     -3.67720000000000     -4.30460000000000
H            -0.06589999999997     1.67850000000000     -0.25540000000001
H            0.04210000000000     -1.69949999999999     -0.34360000000000
C            2.00209999999997     -3.98780000000002     -6.43649999999998
H            2.51550000000000     -4.95510000000003     -6.44430000000001
H            1.22990000000000     -4.01480000000002     -7.21560000000000
H            2.73150000000000     -3.22130000000001     -6.72699999999998
H            -0.55459999999998     1.37560000000001     -3.11279999999999
P            2.29240000000001     -0.00000000000000     -0.00000000000007
P            -2.29239999999993     0.00000000000005     -0.00000000000016
O            -2.79851819305204     0.42543430500356     1.47546969123572
C            0.13229999999999     0.00000000000001     1.95369999999998
C            1.30376563876593     -0.56686403724316     2.47165626123701
C            1.45612345439178     -0.75894780213585     3.83787328895366
C            0.46748542726695     -0.36502041419231     4.71870772925665
C            -0.65395950487156     0.26827712171485     4.22262061179098
C            -0.81663866557158     0.46439760129386     2.85398200011428
C            2.43895306788000     -0.94841725786351     1.56962982312840
C            3.48239598536771     -1.07666131978810     -1.09098850507196
C            3.60425827797993     -0.46484802590448     -2.48914568003996
C            2.84002551166308     -2.46755562793086     -1.20416809562782
C            4.90108537552847     -1.31028784037925     -0.55858254583415
C            3.15783628286941     1.65825393160127     0.37536813952755
C            2.80489616865979     2.64002149772382     -0.74182880652397
C            4.67530235876928     1.60617947772195     0.53481775904307
C            2.55737793431378     2.17635602248140     1.68308176481365
C            -2.01548272231123     1.21456090632982     2.35693625565411
C            -3.24229780265255     -1.59945522319418     -0.01390815985093
C            -2.61352392276733     -2.56217357402151     0.98424771007312
C            -3.25344005332278     -2.18793562640895     -1.41485103972800
C            -3.39034574483089     1.15400085482073     -1.00974871628085
C            -2.96753013558117     2.59164500773851     -0.71882971236510
C            -4.86843233828998     0.98759402848921     -0.67101453892657
H            2.36278004201310     -1.21833671159560     4.20962072136255
H            0.58334018438497     -0.53162804740799     5.77927760409001
H            -1.41670308242301     0.62343543226557     4.90083733034071
H            2.33652057537296     -2.00018945056561     1.29044051233066
H            3.40293002186189     -0.80789686447098     2.06641620966190
H            4.26465156901149     -1.07823976686181     -3.10399136639748
H            2.64305195804620     -0.41432899462741     -2.99268681727494
H            4.02799301223385     0.53655673271435     -2.44851742934006
H            3.19872680158464     -3.12983969260066     -0.41877965102244
H            1.75827254849814     -2.41631187851476     -1.12252733679073
H            3.09885337832335     -2.92316584585700     -2.15986471658128
H            4.90615667274032     -1.56151954744532     0.49812711250501
H            5.32591653035282     -2.15674206387690     -1.10069882163492
H            5.55673591982321     -0.46459970970151     -0.72826772195560
H            3.20085414886482     3.62786909302371     -0.50935660432733
H            3.21460034286333     2.32901935735807     -1.70044775808936
H            1.72511609593894     2.71560042442010     -0.83587757022314
H            4.98743224246665     0.80711018971269     1.20136181100727
H            5.17263532027709     1.49359965038176     -0.42465665836700
H            5.01378658697353     2.54856338491916     0.96582263935824
H            2.87995506772353     3.20327374818561     1.85223081963423
H            1.47156687935901     2.15881376400139     1.63551345838218
H            2.87547536251358     1.57689969525021     2.53293308507928
H            -1.67764329101584     2.12963719103352     1.85857692721341
H            -2.68125029820917     1.47909551139671     3.18515859121647
H            -4.25894005039464     -1.36973928913657     0.32035565335211
H            -2.61801380426152     -2.13290984271471     1.98382978547796
H            -3.16137877275254     -3.50341900272132     1.00372213750991
H            -1.58108407872248     -2.76088704886568     0.70923224008723
H            -3.79196723912846     -3.13494195766706     -1.43038628319870
H            -3.72421088869895     -1.51126825605853     -2.12646406227857
H            -2.22887822820249     -2.36610248109144     -1.73367023080792
H            -3.21451705930858     0.93561796546719     -2.06785358511924
H            -1.88801383669755     2.69976101596898     -0.79434448022859
H            -3.43858742032001     3.28283903983370     -1.41674117188127
H            -3.27048428134831     2.87027116761876     0.28937218603009
H            -5.00134285447228     0.98773301029639     0.40962408253607
H            -5.43614126427865     1.82246586941985     -1.08091245436204
H            -5.28271905343629     0.06838233253372     -1.07631119007617

B 1 2 F
B 1 3 F
B 2 3 F

C P O H 0
6-31G**
******
Ir 0
SDD
******

Ir 0
SDD

--Link1--
%nprocshared=12
%mem=24GB
%oldchk=TS-1olefin-disso
# opt(ts,readfc,nofreeze,noeigentest) guess=read geom=allchk freq int=grid=ultrafine M06 gen pseudo=read

C P O H 0
6-31G**
******
Ir 0
SDD
******

Ir 0
SDD


