%nprocshared=12
%mem=24GB
# opt int=grid=ultrafine M06 gen pseudo=read

Title

-1 1
Ir            0.00609999999999     -0.03989999999999     -0.35490000000000
C            0.05870000000000     0.31169999999999     -2.53020000000000
C            -0.56839999999999     -0.60590000000001     -3.57980000000001
H            -0.55739999999999     -0.09390000000000     -4.55880000000000
C            0.11170000000001     -1.95670000000000     -3.74730000000001
C            -0.53709999999998     -2.86499999999999     -4.78519999999997
H            0.11470000000000     -2.47690000000000     -2.77490000000000
H            1.17450000000002     -1.80310000000000     -4.00750000000000
H            -0.06040000000001     -3.85750000000001     -4.75080000000000
H            -1.59389999999999     -3.03159999999999     -4.51290000000000
H            -1.63220000000000     -0.79370000000000     -3.36100000000001
H            0.00490000000000     -1.41500000000000     -1.06210000000000
H            1.10520000000001     0.46700000000000     -2.83880000000000
H            -0.41149999999999     1.30760000000001     -2.63100000000000
C            -0.46970000000001     -2.34560000000000     -6.21560000000000
H            -1.02539999999999     -1.40080000000000     -6.29680000000000
H            0.57610000000001     -2.10150000000002     -6.46039999999999
C            -1.01840000000002     -3.34660000000000     -7.21880000000000
H            -0.97749999999996     -2.96710000000002     -8.24570000000000
H            -0.45259999999998     -4.28669999999996     -7.18800000000000
H            -2.06530000000000     -3.59080000000000     -6.99640000000001
P            2.13789999999997     -0.00000000000010     0.00000000000002
N            -3.38267965803269     0.17892187841243     -0.35772576890440
C            -2.13790000000006     0.00000000000001     -0.00000000000001
C            -3.71179649863028     0.57121867041628     -1.71240089118164
H            -4.59650360947342     0.01938945828227     -2.04324566928054
H            -2.86605638489308     0.31445029759660     -2.34874398423943
C            -3.96236747311375     2.07623815826803     -1.79044468515695
H            -4.78961816413570     2.37628669823153     -1.14971617065569
H            -4.19692208018622     2.36161624103430     -2.81169184572614
H            -3.07085919125394     2.61343439761362     -1.47497835052251
C            -4.51187994917077     0.03652013861739     0.55140568753731
H            -4.27099313454543     0.51859909647461     1.50164511485663
H            -5.37795624952659     0.54442783686939     0.12236884834751
C            -4.83534344349850     -1.43960566580674     0.77224444566044
H            -5.14121322905852     -1.90529735275147     -0.16206678874652
H            -5.64186282617715     -1.54500281422498     1.49360926056030
H            -3.95981076257846     -1.96667103222740     1.14377874318071
C            1.83927828859403     0.49802335867818     1.70666473851433
C            3.17630623072776     -1.58016745792078     0.01094857748271
C            3.16694706505230     1.50522002226341     -0.52041644201174
C            2.38758272731689     -2.58348217658510     0.85099803086183
H            1.36140324183804     -2.66081236337583     0.48947036652304
H            2.36278994916764     -2.27513631953606     1.89447857875486
H            2.85107118379428     -3.56756975357113     0.79233349779165
C            4.55951306279380     -1.38651419215175     0.62201796392721
H            4.49334880071988     -0.87750182533020     1.58099173221703
H            5.20746439592855     -0.81865246257396     -0.04009272312465
H            5.02215488814018     -2.36085479135103     0.78157533300331
C            3.29214959313750     -2.09589398828689     -1.42098380729992
H            3.80375949764125     -3.05789871158127     -1.43071876996815
H            3.85363045880640     -1.40657024272679     -2.04539349832121
H            2.30270152055343     -2.21981709198431     -1.85219810281545
C            4.24883130859257     1.85977740440289     0.50031310405310
H            5.14890552380539     1.26885273682706     0.36452174750853
H            3.87215496467384     1.70833244714340     1.51039519929339
H            4.52170512451702     2.90896677835208     0.38934698892708
C            2.11777402042327     2.62265824048798     -0.50360967409016
H            2.56070961770580     3.57566064802853     -0.79269632331422
H            1.71318187647071     2.72706209131201     0.50426407435837
H            1.30305354537530     2.40138362728526     -1.19438072634284
C            3.77443591810091     1.38795521771291     -1.91391600307336
H            3.02965280274441     1.07071367210975     -2.64032621882372
H            4.59876127184005     0.67821246717971     -1.92713346848793
H            4.16473669169157     2.35726464771947     -2.22589901530920
C            -0.31390000000131     0.00000000000052     1.21009999999988
C            -1.71893399872402     -0.09821261798678     1.41193486289944
C            -2.17487462914126     -0.27568953093099     2.71574619355562
H            -3.19221951693751     -0.53964669911454     2.97304823344790
C            -1.23904842050898     -0.19991693112554     3.76283673015842
H            -1.61029130703587     -0.33154776435552     4.77148582412118
C            0.11480531284855     0.01178876076985     3.58988503871522
H            0.77053016237711     0.05579748078919     4.44973802131995
C            0.62754380128846     0.08746083775491     2.27905650457677

P C H N 0
6-31G**
******
Ir 0
SDD
******

Ir 0
SDD

