%nprocshared=12
%mem=24GB
# opt int=grid=ultrafine M06 gen pseudo=read

Title

-1 1
Ir            0.00000000000004     -0.00010000000001     -0.30909999999993
H            -0.02639999999999     0.73459999999999     -1.74220000000000
H            0.02630000000000     -0.73489999999999     -1.74210000000000
P            2.13790000000012     0.00000000000044     -0.00000000000013
N            -3.38015508639682     -0.07154904612753     -0.39042254664824
C            -2.13789999999999     -0.00000000000002     -0.00000000000013
C            -3.67757968415510     -0.40255950449053     -1.77150321014589
H            -4.57938595277401     -1.02082091221673     -1.80103321009994
H            -2.83491319856205     -0.97350690309665     -2.16673938509563
C            -3.86574211231553     0.86100189097524     -2.60701509664734
H            -4.67860827737670     1.47214863903246     -2.21968805279293
H            -4.09174676804329     0.59606170823442     -3.63558999049297
H            -2.94906143405656     1.44511991042574     -2.58829751707478
C            -4.52362655270327     0.22056424301109     0.46753649104585
H            -4.31725168625667     1.13556318835347     1.02808856743026
H            -5.39201225350957     0.40580165031918     -0.16865559702200
C            -4.81865532292046     -0.92588602052169     1.42988794342655
H            -5.05686514585645     -1.83454095244780     0.88108982368536
H            -5.66338176428461     -0.66886976880802     2.06437284919159
H            -3.95629162366791     -1.11970630278288     2.06354151159091
C            1.68734154451296     -0.56914104538121     1.60639819512558
C            3.12934390011226     -1.46152884613520     -0.68797660082255
C            3.19142692439385     1.56787860547898     0.14664453390528
C            2.29736283642005     -2.69777957014988     -0.33705364328750
H            1.28683811711781     -2.60201540481314     -0.73774848869878
H            2.23085445236849     -2.81652761241582     0.74158750104380
H            2.75558962633196     -3.59027530250861     -0.76062534356526
C            4.50989936846887     -1.61660612382171     -0.05805387442821
H            4.43604372074326     -1.56508286856691     1.02678980414249
H            5.20303669620631     -0.85635846307037     -0.41036356326987
H            4.92389568440878     -2.58943694343275     -0.32499157444970
C            3.22672148891661     -1.36188072286335     -2.20947945399032
H            3.61548373917650     -2.29515873846617     -2.61571156787066
H            3.88436528322218     -0.55775445379012     -2.52470646516499
H            2.23851923396982     -1.18668289578936     -2.63115172503267
C            4.21681728553034     1.46749914655835     1.27241464594125
H            5.01367121890657     0.77056972437121     1.03336710512562
H            3.73934721585686     1.14071161321607     2.19530450955916
H            4.66647960345844     2.44592173279894     1.44517237187161
C            2.18242831538070     2.66587915226760     0.48224224820171
H            2.68226716426085     3.63140914702708     0.55747909117028
H            1.69514619151623     2.46289577967514     1.43589943038566
H            1.41806901225762     2.72954138465009     -0.29367575027517
C            3.85907881635777     1.88327660045050     -1.18772421144920
H            3.12630389758088     1.84201799052837     -1.99209041264727
H            4.65980864838365     1.18024651398393     -1.40348350992324
H            4.29041123095207     2.88393198043854     -1.16119029818170
C            -0.31390000000005     0.00000000000117     1.21010000000365
C            -1.68060329739196     0.33591014296709     1.35401054061403
C            -2.09091379078308     0.88262431243479     2.58487972917447
H            -3.08492298050292     1.27146013530225     2.76426150941734
C            -1.15850805299175     0.94781348463874     3.61479279376142
H            -1.48744091341853     1.34626350387383     4.56684631203287
C            0.17611158043403     0.54614149412842     3.50988344080104
H            0.83686520114640     0.63883835449734     4.36247688308092
C            0.61371694266401     0.08699166219297     2.27394300874642

P C H N 0
6-31G**
******
Ir 0
SDD
******

Ir 0
SDD


