%nprocshared=12
%mem=24GB
%chk=TS-BHT-1-2
# opt=(modredundant) int=grid=ultrafine M06 gen pseudo=read

Title

-1 1
Ir            -0.01030000000000     -0.12270000000000     -0.41599999999999
C            0.01180000000000     -0.03450000000000     -2.61920000000000
C            -0.28320000000001     -1.41750000000000     -2.36560000000000
H            -1.34690000000000     -1.66200000000000     -2.41570000000000
C            0.55790000000002     -2.51270000000000     -2.99190000000000
C            0.23590000000000     -3.93200000000000     -2.53910000000000
H            1.62099999999999     -2.29000000000000     -2.85739999999999
H            0.37860000000000     -2.43800000000000     -4.07760000000001
H            1.07690000000000     -4.59960000000000     -2.78100000000000
H            0.14310000000000     -3.95750000000000     -1.43980000000000
H            -0.09140000000000     -1.84430000000000     -0.87200000000000
H            -0.02800000000000     1.48720000000000     -0.22770000000000
H            0.98120000000000     0.19449999999999     -3.06680000000000
H            -0.79030000000000     0.59320000000000     -3.00620000000000
C            -1.03340000000002     -4.49669999999999     -3.16719999999998
H            -1.86110000000001     -3.78099999999999     -3.04680000000000
H            -0.88160000000000     -4.59499999999999     -4.25280000000000
C            -1.43050000000003     -5.83580000000000     -2.57040000000000
H            -2.32120000000001     -6.25390000000000     -3.05159999999999
H            -0.62050000000001     -6.56910000000000     -2.67319999999998
H            -1.64560000000001     -5.73680000000000     -1.49819999999998
P            2.13790000000002     -0.00000000000007     -0.00000000000004
N            -3.37075234226562     0.19618002458391     -0.38455476590844
C            -2.13789999999998     -0.00000000000002     -0.00000000000001
C            -3.71144248695199     0.28899704435279     -1.79188880884097
H            -4.65978992122587     -0.23108395737788     -1.95936918411292
H            -2.93176409403437     -0.20725964224748     -2.36928661472950
C            -3.81428960648320     1.74488818497062     -2.23740825142013
H            -4.59385294093247     2.27127389039326     -1.69094477869623
H            -4.04508137112306     1.79229375886103     -3.29804692307755
H            -2.86677714754224     2.24774421794973     -2.05901521489858
C            -4.48642920446269     0.36092837111468     0.53918635600939
H            -4.15189667150260     0.96289487613137     1.38636719854912
H            -5.28777862354614     0.90021309697737     0.03007670513517
C            -4.99941693866371     -0.99481574337962     1.01925114611279
H            -5.39097873529242     -1.57488705544588     0.18598552437626
H            -5.79465257395093     -0.85719944133892     1.74760906330235
H            -4.19556553854663     -1.56175888161082     1.48276313178824
C            2.02319133027662     0.24000893512407     1.83782713935801
C            3.38491556556668     -1.44225042005508     -0.06059699882175
C            3.05384941212379     1.62851391531585     -0.41108576827752
C            2.55012781661469     -2.68752719615141     0.24051424959098
H            1.81464151751857     -2.86302504817546     -0.53599093598167
H            2.03464940106231     -2.56677704810205     1.19340749890673
H            3.18929127410735     -3.56862268993747     0.30314149527407
C            4.45285628022974     -1.34628664351054     1.03064251832084
H            4.01578802511085     -0.91918808372346     1.93186124063973
H            5.30161739573008     -0.74483364315493     0.72703028716655
H            4.82480165451270     -2.34414576508482     1.26170948852515
C            4.02287814343901     -1.57517065451025     -1.44192905962740
H            4.50719777206873     -2.54769603195916     -1.53924967509114
H            4.77468391217366     -0.80852979486637     -1.61285869685572
H            3.27301409886446     -1.48590220189111     -2.22626765312671
C            4.52136455531172     1.62865293510436     0.00610013168891
H            5.11955824483135     0.95334140929143     -0.59744278693003
H            4.61259347567294     1.36994111934349     1.05611998393742
H            4.92588562053358     2.63222017612677     -0.13357373894633
C            2.37813747104235     2.74406991854891     0.38695362570870
H            2.90710864928152     3.68442708389682     0.23665376103219
H            2.39351720213324     2.49428003148451     1.44766817345805
H            1.34624672635056     2.88689650958699     0.07853656731530
C            2.94219587981618     1.92611758798509     -1.90429328726845
H            1.90028391965387     2.06279929990597     -2.18227441172691
H            3.36350975911211     1.11820876010472     -2.50004460174901
H            3.48316739848215     2.84244410902330     -2.14267558259276
C            -0.31390000000019     0.00000000000031     1.21009999999950
C            -1.73113911670484     0.01968549235032     1.42466774771852
C            -2.17392254263362     0.05413771442922     2.72938706802591
H            -3.20985887889476     -0.04243306437756     3.02956262995010
C            -1.21221454897842     0.18074909806044     3.76476176896119
H            -1.58684832679029     0.22873839710189     4.77878161657472
C            0.14395852672458     0.25594386536743     3.55777800540199
H            0.81129168646568     0.38180025419552     4.39995546929155
C            0.67874492350436     0.14757444923991     2.24608002068591

B 1 2 F
B 2 3 F
B 3 11 F
B 11 1 F

P C H N 0
6-31G**
******
Ir 0
SDD
******

Ir 0
SDD

--Link1--
%nprocshared=12
%mem=24GB
%oldchk=TS-BHT-1-2
# opt(ts,readfc,nofreeze,noeigentest) guess=read geom=allchk freq int=grid=ultrafine M06 gen pseudo=read

P C H N 0
6-31G**
******
Ir 0
SDD
******

Ir 0
SDD


