%nprocshared=12
%mem=24GB
%chk=TS-CH-Add-1-2
# opt=(modredundant) int=grid=ultrafine M06 gen pseudo=read

Title

-1 1
Ir            -0.00040000000000     0.10810000000002     -0.34670000000003
C            0.06130000000002     0.31670000000000     -2.63970000000000
C            -0.34019999999999     -1.00750000000001     -3.28000000000000
H            -1.35050000000001     -1.28060000000001     -2.95440000000000
C            -0.31099999999999     -0.94090000000001     -4.80529999999999
C            -0.66810000000004     -2.25270000000000     -5.49309999999996
H            0.68700000000000     -0.60960000000000     -5.13360000000000
H            -1.01359999999999     -0.15630000000000     -5.13609999999999
H            -0.61210000000001     -2.11769999999997     -6.58480000000000
H            0.08610000000000     -3.01830000000000     -5.24680000000000
H            0.31269999999998     -1.83000000000000     -2.94360000000000
H            -0.01569999999999     1.30660000000000     -1.36560000000000
H            1.07159999999999     0.59120000000000     -2.97560000000000
H            -0.59140000000001     1.08330000000001     -3.09580000000000
C            -2.04979999999995     -2.78670000000002     -5.13359999999997
H            -2.06279999999999     -3.10020000000001     -4.07930000000000
H            -2.78680000000001     -1.96959999999998     -5.21300000000000
C            -2.46589999999999     -3.95379999999996     -6.01319999999998
H            -3.44769999999996     -4.35189999999997     -5.73440000000001
H            -2.51370000000001     -3.65550000000000     -7.06820000000000
H            -1.74160000000001     -4.77530000000002     -5.94039999999998
P            2.13789999999991     0.00000000000008     -0.00000000000000
N            -3.39421759689691     -0.06981993521162     -0.36541919567789
C            -2.13789999999991     0.00000000000014     -0.00000000000003
C            -3.75841526662663     -0.11118108713461     -1.76750162139002
H            -4.53305553984434     -0.87204558232629     -1.91039621895706
H            -2.87440911674729     -0.39535860677604     -2.33552098933141
C            -4.24894879314783     1.24454856962015     -2.26840707807754
H            -5.13321716596394     1.57451361973877     -1.72762235365538
H            -4.49786490138175     1.17589453796667     -3.32386837134439
H            -3.46604926776313     1.98759886577922     -2.13947079074133
C            -4.51520686184062     -0.10611961606691     0.56744014630015
H            -4.37531302282348     0.67607558363926     1.31623320876588
H            -5.43208857932888     0.11598764267767     0.01759970156403
C            -4.64193359500379     -1.47102806568128     1.23968193143479
H            -4.83718984372434     -2.24408225943345     0.49962566402188
H            -5.46124468374053     -1.45881137900759     1.95411829968506
H            -3.72537119176522     -1.72289916562149     1.76688618155764
C            2.01780347226979     -0.15010496567559     1.85503421991366
C            3.06052212424177     -1.60798315408958     -0.34851085527240
C            3.27981926473402     1.50151589644488     -0.19154460960396
C            2.07691329530730     -2.64783671338687     0.19436078502291
H            1.10571393105379     -2.54963908668672     -0.30222547358527
H            1.93281559188357     -2.48748828110653     1.26381037795353
H            2.44595005403193     -3.66105722368782     0.03741219232597
C            4.37429289077002     -1.71291159951348     0.41554411271266
H            4.22593619552628     -1.38795656699912     1.44312749654796
H            5.14908368462034     -1.10557748356393     -0.04641874895729
H            4.72014917390505     -2.74667584677510     0.42162952597452
C            3.27013185054498     -1.84358346914250     -1.84173333132445
H            3.54193863633578     -2.88476042322625     -2.01996906033481
H            4.06426002482164     -1.21809366689789     -2.23953877546801
H            2.35760537344063     -1.62816319109662     -2.39325024087039
C            4.23322565327862     1.63369775000725     0.99166528339207
H            5.00995774480090     0.87652505893839     0.96889417363871
H            3.67662316688375     1.52580026433319     1.92222452569876
H            4.71194881855523     2.61304034489979     0.97626414640026
C            2.33942046307290     2.71024133651204     -0.19855679598755
H            2.91279664875394     3.63611928841180     -0.16075012986672
H            1.67202659220115     2.68277004627601     0.66252402750994
H            1.73498667631167     2.72306892587888     -1.10326684840690
C            4.04271720392873     1.47211016946266     -1.51363150944290
H            3.37041073464067     1.23806573410850     -2.33744703530632
H            4.84356214582635     0.73761451233400     -1.49462974574411
H            4.48941712777851     2.44752880883745     -1.70727347205272
C            -0.31390000000275     0.00000000000103     1.21010000000107
C            -1.72308681981732     0.05027709850321     1.42661543198066
C            -2.16555836504549     0.24795945811180     2.72644395261732
H            -3.20061973568026     0.39712529824971     3.00841538129774
C            -1.20546298552247     0.32779301825642     3.75594632454722
H            -1.57209116912422     0.50194586147636     4.75976291110860
C            0.15793182960858     0.23310885469777     3.56517576317736
H            0.82493310607364     0.35204242840700     4.40946097143220
C            0.67888949610513     0.06372549625158     2.26218179463632

B 1 12 F
B 1 2 F
B 2 12 F

P C H N 0
6-31G**
******
Ir 0
SDD
******

Ir 0
SDD

--Link1--
%nprocshared=12
%mem=24GB
%oldchk=TS-CH-Add-1-2
# opt(ts,readfc,nofreeze,noeigentest) guess=read geom=allchk freq int=grid=ultrafine M06 gen pseudo=read

P C H N 0
6-31G**
******
Ir 0
SDD
******

Ir 0
SDD


