%nprocshared=12
%mem=24GB
%chk=TS-1olefin-disso
# opt=(modredundant) int=grid=ultrafine M06 gen pseudo=read

Title

0 1
Ir   -0.221800000000     -0.178100000000      0.193500000000
C     1.007300000000      1.798600000000      1.709100000000
C     1.125600000000      2.903100000000      0.961800000000
H     0.606400000000      3.812000000000      1.285000000000
H     1.574800000000      0.892800000000      1.474900000000
C     1.991200000000      3.047100000000     -0.242300000000
H     2.298400000000      2.054900000000     -0.594500000000
H     1.418500000000      3.503000000000     -1.065500000000
C     3.232300000000      3.892700000000      0.036500000000
H     3.791300000000      3.443400000000      0.873500000000
H     2.939000000000      4.899600000000      0.374900000000
C     4.137900000000      3.999100000000     -1.180900000000
H     3.572700000000      4.441500000000     -2.015200000000
H     4.409700000000      2.983200000000     -1.509700000000
H    -0.657700000000     -0.764700000000      1.715000000000
H     0.210900000000      0.432300000000     -1.325200000000
C     5.391000000000      4.813400000000     -0.909300000000
H     6.035800000000      4.880500000000     -1.791900000000
H     5.137400000000      5.836500000000     -0.604200000000
H     5.981400000000      4.368400000000     -0.098500000000
H     0.422900000000      1.784700000000      2.625300000000
H    -2.321300000000      0.863300000000      0.103600000000
H    -1.229500000000     -1.727800000000     -0.637100000000
H     1.591200000000     -1.672400000000      0.057400000000

B 1 2 F
B 1 3 F
B 2 3 F

t[corelesslist] 0
6-31G**
******
Ir 0
SDD
******

Ir 0
SDD

--Link1--
%nprocshared=12
%mem=24GB
%oldchk=TS-1olefin-disso
# opt(ts,readfc,nofreeze,noeigentest) guess=read geom=allchk freq int=grid=ultrafine M06 gen pseudo=read

t[corelesslist] 0
6-31G**
******
Ir 0
SDD
******

Ir 0
SDD



