%nprocshared=12
%mem=24GB
# opt int=grid=ultrafine M06 gen pseudo=read

Title

-1 1
Ir            -0.00000000000000     -0.00000000000000     -0.31210000000000
P            2.01530000000007     0.00000000000005     -0.00000000000004
O            2.28674420484760     -0.06152052197844     1.64129532234561
N            -2.01529999999999     0.00000000000001     0.00000000000002
C            -0.05739999999999     0.00000000000000     1.57849999999999
C            1.10817461783663     -0.04511565734815     2.35788362555190
C            1.03686612235293     -0.08776638615713     3.73126452235468
H            1.93467576167635     -0.12369401143269     4.32926694344821
C            -0.22422086502760     -0.09491193599286     4.34530437989895
H            -0.27077280867964     -0.12914793865067     5.42348347240870
C            -1.38963171246081     -0.07218370688129     3.61271410590356
H            -2.34883883895464     -0.09319267635871     4.10974748830938
C            -1.32242539850779     -0.03135510737093     2.21311081243161
C            3.18022277008456     -1.37018739075498     -0.51813997136824
H            3.22806985582777     -1.34386223055945     -1.61321165505114
C            2.51226329978098     -2.67299333230012     -0.08901894025971
H            3.06321532855318     -3.53806922580756     -0.45476410836383
H            1.49259274782579     -2.71784800474394     -0.47171472421941
H            2.46559556099185     -2.72228422422591     0.99686854468062
C            4.58356922670734     -1.25106785151343     0.06038767573453
H            5.14371638252523     -2.16668005442313     -0.12660904051255
H            4.52819650264143     -1.09283038063867     1.13454464325127
H            5.12989404983461     -0.42511244072288     -0.38867697958161
C            3.01418691609677     1.54065762212801     -0.36212994095787
H            3.98377158928253     1.48000526032379     0.13943371867667
C            2.22920344611760     2.71495773225245     0.21308805336938
H            2.74683257123283     3.65661804208908     0.03651260506739
H            2.09151693747334     2.58824368971089     1.28473672701003
H            1.24328571637835     2.76632236930552     -0.24830486823044
C            3.19634378430428     1.69535517574133     -1.86553173098640
H            3.64910463879501     2.65716909688206     -2.10291773895122
H            2.22766409770685     1.64517373677613     -2.36392282463616
H            3.83122636482397     0.91075519091548     -2.27179049908706
C            -2.37999310377392     -0.03242663252079     1.25656346664580
H            -3.43064325607153     -0.05257389046590     1.53706832910995
C            -2.97328423221493     -0.01093894652999     -1.02201995619375
C            -3.67294688247922     -1.18273350504178     -1.33903175240849
C            -4.60581716848263     -1.13616970039404     -2.36488308089775
H            -5.15973655037073     -2.02669861625638     -2.62197967317402
C            -4.84303150668131     0.03410536334872     -3.06019184592342
H            -5.58680747186046     0.05538908569885     -3.84315793592924
C            -4.11984157953800     1.17661090839667     -2.76479240412624
H            -4.30570954294722     2.07845741777348     -3.32650636484304
C            -3.17132393852376     1.17046004614696     -1.75598925237730
C            -3.37756184255663     -2.48395573987578     -0.62761562530614
H            -2.61247832907079     -2.30615348280902     0.13496016268647
C            -2.81575122890719     -3.50833121662254     -1.61782292232103
H            -1.92779399385480     -3.11426142382256     -2.10842601421080
H            -3.54753205210206     -3.75479165810015     -2.38345513407933
H            -2.54203520842172     -4.42279193253203     -1.09601620206532
C            -4.62075425376670     -3.03192811500608     0.07401877454748
H            -5.01078621746007     -2.30364093084885     0.78203962790816
H            -4.37169688663868     -3.94077664661788     0.61765410934047
H            -5.40384715045758     -3.26526620052325     -0.64352625561040
C            -2.35453243268582     2.38842485233357     -1.39128788579409
H            -1.36049777946916     2.03040323956626     -1.06440971405592
C            -2.14792220564674     3.35584837557629     -2.55398817632044
H            -1.79556702601908     2.83151367607164     -3.44047794625099
H            -1.40865443956005     4.10636806712741     -2.28012172434386
H            -3.07180218175097     3.87464749557543     -2.80041286070041
C            -2.99410446818302     3.11468290443938     -0.20447297619799
H            -3.04046514723689     2.46492696655346     0.66616768537932
H            -4.00478169737091     3.43039299545740     -0.45737868567121
H            -2.40976356288540     3.99390569221491     0.05808013545063

C P O N H 0
6-31G**
******
Ir 0
SDD
******

Ir 0
SDD


