%nprocshared=12
%mem=24GB
# opt int=grid=ultrafine M06 gen pseudo=read

Title

-1 1
Ir            0.00000000000000     -0.00010000000001     -0.30910000000002
H            -0.02640000000000     0.73460000000000     -1.74219999999999
H            0.02630000000000     -0.73490000000000     -1.74210000000001
P            2.01530000000013     0.00000000000013     0.00000000000007
O            2.28669352922760     0.05812781148531     1.65321016978366
N            -2.01529999999999     0.00000000000004     0.00000000000006
C            -0.05739999999998     0.00000000000000     1.57849999999999
C            1.09691678692671     0.01469152590100     2.35158386842932
C            1.03059868380727     -0.01055742993217     3.73783270301688
H            1.93186451183344     0.00689737870220     4.33321624600116
C            -0.22018874806102     -0.05853908700224     4.34600511310625
H            -0.27365415352038     -0.08074238501269     5.42505153674853
C            -1.39161235469204     -0.07897268887389     3.60571627725027
H            -2.35233032841781     -0.12004573620313     4.10040918784387
C            -1.30303308327644     -0.04660275714693     2.21509515591006
C            3.02840441818904     -1.52777547757152     -0.37737957695575
H            3.07058755028905     -1.60999439857211     -1.46775696889589
C            2.23723394142152     -2.71190655966395     0.17284117300345
H            2.71786078075167     -3.65525385283396     -0.08248965970361
H            1.22746155821746     -2.71143742270056     -0.24046751153324
H            2.16948898673321     -2.64748607065837     1.25833260065302
C            4.43526653884480     -1.48772680223024     0.20470638933575
H            4.90680970628556     -2.46479101367202     0.10329652360982
H            4.39716055722132     -1.23527503839994     1.26241612218194
H            5.05853084571104     -0.75791223444270     -0.30594789092687
C            3.14892102007611     1.40252120858142     -0.46116877294507
H            4.06657112233169     1.30604656315321     0.12922913871520
C            2.43667637685944     2.69497257684045     -0.07533149067207
H            3.05331508189146     3.56261522903300     -0.30555483689400
H            2.21722224083179     2.70456587791813     0.99127387178373
H            1.49799469751481     2.77513787696741     -0.62390495821789
C            3.45895224498988     1.37102605384013     -1.95031018345808
H            4.04036260373650     2.24693659140747     -2.23440151679674
H            2.53070856016195     1.36902601111342     -2.51808422358869
H            4.02662437750168     0.48311037950016     -2.21735347198213
C            -2.37021424021376     -0.04700494684400     1.24296504416676
H            -3.42074392377989     -0.07715363454745     1.53175462613063
C            -3.02759715374679     0.00551246513490     -0.98925635963751
C            -3.61952871161731     -1.19797901250358     -1.38542978609436
C            -4.62909666285117     -1.15712786612740     -2.33667557259174
H            -5.10464683559272     -2.07435328943897     -2.64904683200121
C            -5.04136258533246     0.04182626812637     -2.88453202753985
H            -5.83853104378411     0.05725880182405     -3.61303202488888
C            -4.42720137257095     1.22095507249004     -2.50630018633498
H            -4.75060575913990     2.15142373693282     -2.94624147681392
C            -3.40934445558137     1.22280949604957     -1.56495505444994
C            -3.15802031680245     -2.52118466381187     -0.81808058246679
H            -2.31431346384319     -2.34182229797229     -0.14391152266275
C            -2.65615823744670     -3.43621832588169     -1.93669840664536
H            -1.86667739408295     -2.93783424677111     -2.49438470153207
H            -3.45792333339011     -3.69385150869362     -2.62364263272151
H            -2.25709695745631     -4.35646184793219     -1.51537374977173
C            -4.27587912840938     -3.19246681038808     -0.01774311232613
H            -4.61330105764362     -2.54370274829271     0.78848285334433
H            -3.92044680941826     -4.12441442200863     0.41690153147790
H            -5.12853874044281     -3.41401987985310     -0.65501267009692
C            -2.73901790699762     2.51015287239577     -1.14298463990252
H            -1.82137878848736     2.25341789235097     -0.59832889734663
C            -2.32782486597351     3.35736109305770     -2.34680077201010
H            -1.73192602017235     2.76118117313763     -3.03328997527314
H            -1.73045570158643     4.20381045770262     -2.01553760149021
H            -3.19369321985020     3.74299076921790     -2.87841179598560
C            -3.65454049951789     3.29932487999794     -0.20469806361984
H            -3.89850575561452     2.71079661767932     0.67785136557488
H            -4.58317641706413     3.56018060169468     -0.70824332957015
H            -3.16580524444376     4.21634202045779     0.11747432359498

C P O N H 0
6-31G**
******
Ir 0
SDD
******

Ir 0
SDD


