%nprocshared=12
%mem=24GB
%chk=TS-1olefin-disso
# opt=(modredundant) int=grid=ultrafine M06 gen pseudo=read

Title

-1 1
Ir            -0.00410000000001     -0.00799999999999     -0.29060000000000
C            -0.06270000000000     0.40949999999999     -3.03609999999996
C            -0.55669999999997     -0.68530000000007     -3.62760000000001
H            -1.48990000000001     -0.59789999999999     -4.19480000000000
H            0.90840000000000     0.39160000000001     -2.53220000000001
C            0.10320000000001     -2.02019999999995     -3.67119999999999
H            0.90410000000000     -2.05870000000001     -2.92280000000000
H            -0.61710000000000     -2.80580000000001     -3.39270000000000
C            0.68209999999995     -2.33359999999991     -5.04959999999997
H            1.38719999999998     -1.53490000000008     -5.33200000000000
H            -0.11499999999999     -2.31609999999998     -5.81039999999999
C            1.39620000000001     -3.67630000000012     -5.07899999999993
H            0.68960000000001     -4.46879999999995     -4.78919999999999
H            2.17999999999999     -3.67720000000000     -4.30460000000002
H            -0.06590000000000     1.67850000000000     -0.25540000000000
H            0.04210000000000     -1.69950000000000     -0.34360000000000
C            2.00210000000012     -3.98779999999990     -6.43649999999995
H            2.51550000000002     -4.95510000000002     -6.44429999999998
H            1.22989999999999     -4.01480000000004     -7.21560000000001
H            2.73150000000005     -3.22129999999994     -6.72699999999997
H            -0.55460000000000     1.37559999999999     -3.11280000000000
P            2.01529999999996     -0.00000000000003     -0.00000000000001
O            2.27509718094655     0.07139862478455     1.63166303977731
N            -2.01530000000000     -0.00000000000001     0.00000000000000
C            -0.05739999999999     0.00000000000000     1.57849999999998
C            1.10343448426832     0.05835959116329     2.35150649719989
C            1.03000025669592     0.12860669363597     3.72436665621165
H            1.93004277765166     0.17779070613264     4.31781184414859
C            -0.22913505701903     0.15260584099016     4.33882930656543
H            -0.27751948292123     0.21286443837859     5.41547312239746
C            -1.39139613353607     0.11853516676087     3.60317362343012
H            -2.35438343774291     0.15716132293792     4.09091929427498
C            -1.31879287470803     0.04701139881133     2.20431991181461
C            3.11915065237785     -1.49843273343483     -0.34558539975482
H            2.97072655627883     -1.74970372161673     -1.40265018958012
C            2.63574231867753     -2.66647255724454     0.50795556239237
H            3.14459120952179     -3.58468918735468     0.21890367613748
H            1.56565867401207     -2.81451567554637     0.39345535950056
H            2.84250286905022     -2.47124438063679     1.55820111167697
C            4.60370931666878     -1.27540370915106     -0.07337754921636
H            5.12496534610858     -2.23085480692179     -0.13012617649089
H            4.74258240246400     -0.87711975606589     0.92954673596565
H            5.06346933669564     -0.60424713065129     -0.79359033228039
C            3.17779228006633     1.40873792920957     -0.43814417741905
H            4.10600326377084     1.18753609800249     0.09709530338937
C            2.64738677385924     2.73387553484485     0.08810744325139
H            3.37273461251818     3.52644908467923     -0.09155780755392
H            2.45892412855888     2.66913367880416     1.15784774251579
H            1.71490824917479     2.99840837464877     -0.40357951059636
C            3.44255664407266     1.48090836042637     -1.93697710459451
H            4.29905729770910     2.12309931366300     -2.14024482942923
H            2.58208160773977     1.90237438738370     -2.45277825233215
H            3.64719565360847     0.49569875032436     -2.35525853199152
C            -2.37774459738558     0.06350949033555     1.24732334864406
H            -3.42345641410217     0.15886565712101     1.52872259520211
C            -2.97793263383254     0.05784699040460     -1.03681892031564
C            -3.50169153240084     -1.13797011717910     -1.55470875518794
C            -4.35656717880764     -1.07571700674911     -2.64454148356184
H            -4.76925733696702     -1.98415790828409     -3.05369411576693
C            -4.69669923353313     0.13665109967827     -3.21419320841703
H            -5.35239910312724     0.16723407948710     -4.07226143535419
C            -4.22243831133318     1.30933928121489     -2.66220218439081
H            -4.52963063493111     2.25350565452413     -3.08595458151958
C            -3.37291577843087     1.29708747028726     -1.56383844153202
C            -3.19597011401962     -2.45741855608753     -0.88405996832363
H            -2.21225781391838     -2.38097328434858     -0.41166812509203
C            -3.16710949575240     -3.63862131414740     -1.85413995048952
H            -2.59007964775726     -3.39597393703962     -2.74284474447123
H            -4.17145965526399     -3.92445615179512     -2.15927676154248
H            -2.70869260970514     -4.49798264820472     -1.36958368978083
C            -4.24113310453676     -2.72048068125165     0.20659784873855
H            -4.21282370460772     -1.94832456126086     0.97088793325854
H            -4.05133880744106     -3.67941757253148     0.68382881845117
H            -5.24002351683578     -2.73903237714255     -0.22684119214499
C            -2.96829718584413     2.60792119092414     -0.92610182946779
H            -2.24173314918177     2.41094697549002     -0.13418863546893
C            -2.31632559645430     3.56889936584115     -1.92123419887718
H            -1.39893115978331     3.14032364863973     -2.31662680635931
H            -2.06184001042285     4.50024559073908     -1.41905716768337
H            -2.97827061739838     3.79899371874333     -2.75287010545649
C            -4.19915134222040     3.26027912206791     -0.28878558098301
H            -4.66104686453740     2.58721407525965     0.43037830105545
H            -4.93871780435187     3.51138121655607     -1.04578628357224
H            -3.91250134123198     4.17327638989252     0.22870587145914

B 1 2 F
B 1 3 F
B 2 3 F

C P O N H 0
6-31G**
******
Ir 0
SDD
******

Ir 0
SDD

--Link1--
%nprocshared=12
%mem=24GB
%oldchk=TS-1olefin-disso
# opt(ts,readfc,nofreeze,noeigentest) guess=read geom=allchk freq int=grid=ultrafine M06 gen pseudo=read

C P O N H 0
6-31G**
******
Ir 0
SDD
******

Ir 0
SDD


