%nprocshared=12
%mem=24GB
%chk=TS-BHT-1-2
# opt=(modredundant) int=grid=ultrafine M06 gen pseudo=read

Title

-1 1
Ir            -0.01030000000000     -0.12270000000001     -0.41600000000001
C            0.01180000000006     -0.03450000000003     -2.61920000000000
C            -0.28320000000000     -1.41749999999996     -2.36559999999999
H            -1.34689999999999     -1.66200000000000     -2.41570000000000
C            0.55790000000001     -2.51270000000007     -2.99189999999989
C            0.23590000000004     -3.93200000000007     -2.53910000000019
H            1.62100000000002     -2.29000000000000     -2.85740000000001
H            0.37860000000002     -2.43800000000001     -4.07759999999994
H            1.07689999999999     -4.59959999999998     -2.78100000000001
H            0.14310000000000     -3.95750000000000     -1.43980000000005
H            -0.09139999999999     -1.84430000000001     -0.87199999999999
H            -0.02800000000000     1.48720000000000     -0.22770000000000
H            0.98120000000004     0.19450000000000     -3.06680000000000
H            -0.79030000000003     0.59319999999995     -3.00620000000002
C            -1.03339999999998     -4.49670000000002     -3.16719999999996
H            -1.86110000000003     -3.78100000000006     -3.04680000000003
H            -0.88159999999999     -4.59500000000002     -4.25279999999971
C            -1.43050000000008     -5.83579999999995     -2.57039999999975
H            -2.32119999999993     -6.25389999999999     -3.05160000000008
H            -0.62049999999999     -6.56910000000000     -2.67320000000004
H            -1.64559999999997     -5.73680000000000     -1.49819999999964
P            2.01529999999987     0.00000000000004     -0.00000000000017
O            2.25952674951525     -0.16303973378870     1.63797189728279
N            -2.01529999999993     -0.00000000000001     0.00000000000003
C            -0.05739999999995     -0.00000000000002     1.57850000000004
C            1.09625132189512     -0.01263188815347     2.35559723869138
C            1.02672997362586     0.10125730005918     3.72730171469196
H            1.92030168234238     0.05812025699368     4.33137293888365
C            -0.22562481252837     0.27632790897874     4.33179466229595
H            -0.27336688991232     0.37005899050159     5.40659260910053
C            -1.38218080211988     0.33771229300473     3.59023775398355
H            -2.34008804390411     0.49046297607221     4.06678024783317
C            -1.30362315688470     0.19128298764391     2.19766047217673
C            3.37435203538732     -1.20506432935443     -0.48523429499991
H            3.41616263226504     -1.21282849880670     -1.58025705581220
C            2.94413151656026     -2.58022992497224     0.01519502661511
H            3.60807787109068     -3.35624773585333     -0.36257172191298
H            1.92915696396334     -2.80726521237260     -0.30032332321775
H            2.97346537499436     -2.59792727295102     1.10272175263290
C            4.74903708194476     -0.86136033987466     0.07966645448597
H            5.40829895962410     -1.72282345170644     -0.01998104594430
H            4.66757879951735     -0.61891874524096     1.13682673646928
H            5.20996570087342     -0.02875054005214     -0.44543412650705
C            2.90977764064141     1.65280312284378     -0.14606123072756
H            3.90722972352858     1.48420280556426     0.26906555387466
C            2.25268979231701     2.73578118617813     0.70320344794831
H            2.87821738356214     3.62735736450953     0.71229879657206
H            2.12013123065772     2.40126695086379     1.73024475164071
H            1.27858210029793     3.00779221837988     0.30518561049820
C            3.01033689789712     2.08888341357990     -1.59815234285071
H            3.56562432345222     3.02240255367277     -1.67733483316857
H            2.01258030176582     2.24425129435062     -2.00128129575832
H            3.51508481519501     1.33347581355360     -2.19753752172222
C            -2.35393840143712     0.22260349416027     1.23811928597759
H            -3.38131329081984     0.46417928388434     1.50093611000216
C            -3.01759012577862     0.07308719475208     -1.00710321439920
C            -3.69568050358375     -1.08318864949384     -1.44026860655021
C            -4.52459977128606     -0.98875554069988     -2.54995868713937
H            -5.04926431578575     -1.85915501920241     -2.90801013114430
C            -4.69896748531368     0.20657358539416     -3.22062595949504
H            -5.32036447245884     0.24591111004560     -4.10359182613304
C            -4.11246700954554     1.35229806172427     -2.72727362817016
H            -4.30145283109741     2.29631572883948     -3.21460538365465
C            -3.29381900619562     1.31252509644135     -1.60656087426271
C            -3.58471286093564     -2.39228553006250     -0.68217381645215
H            -2.53442816173151     -2.55192619885025     -0.41054528685907
C            -4.08393884840158     -3.60429713665157     -1.47253609573174
H            -3.70515777218536     -3.61773165877128     -2.49000327296914
H            -5.17157652234354     -3.61330667851953     -1.51369741431317
H            -3.76293204956193     -4.51859240555861     -0.97878974099343
C            -4.40724124302795     -2.32291500033235     0.61113023447151
H            -3.96883811747708     -1.63913553149772     1.33005126162058
H            -4.45401973815554     -3.30921033172953     1.06851498320605
H            -5.42206918308620     -1.99810042403820     0.38853739963267
C            -2.80662438843109     2.61658108084010     -1.01720450883496
H            -2.17148878885048     2.40794680645987     -0.15290845305299
C            -1.98222581617907     3.43549626636647     -2.01011375865861
H            -1.09564625463039     2.88066020755756     -2.30607204306270
H            -1.66465209764032     4.36615127736295     -1.54448108300159
H            -2.55700326798532     3.67761061247432     -2.90091205955416
C            -4.02009673752615     3.41502024855017     -0.52798617197964
H            -4.61058659477791     2.82346666231460     0.16963480604428
H            -4.66119287372159     3.69589897675057     -1.36047416265657
H            -3.69513574648496     4.32176351247575     -0.02282331588006

B 1 2 F
B 2 3 F
B 3 11 F
B 11 1 F

C P O N H 0
6-31G**
******
Ir 0
SDD
******

Ir 0
SDD

--Link1--
%nprocshared=12
%mem=24GB
%oldchk=TS-BHT-1-2
# opt(ts,readfc,nofreeze,noeigentest) guess=read geom=allchk freq int=grid=ultrafine M06 gen pseudo=read

C P O N H 0
6-31G**
******
Ir 0
SDD
******

Ir 0
SDD


