%nprocshared=12
%mem=24GB
%chk=TS-CH-Add-1-2
# opt=(modredundant) int=grid=ultrafine M06 gen pseudo=read

Title

-1 1
Ir            -0.00039999999999     0.10810000000040     -0.34669999999972
C            0.06129999999967     0.31670000000044     -2.63970000000005
C            -0.34020000000030     -1.00750000000115     -3.27999999999946
H            -1.35050000000042     -1.28060000000019     -2.95440000000005
C            -0.31100000000034     -0.94089999999959     -4.80529999999937
C            -0.66809999999787     -2.25270000000090     -5.49310000000088
H            0.68699999999885     -0.60960000000017     -5.13359999999971
H            -1.01359999999927     -0.15629999999956     -5.13609999999980
H            -0.61210000000004     -2.11770000000017     -6.58480000000039
H            0.08609999999996     -3.01829999999865     -5.24680000000028
H            0.31269999999994     -1.83000000000095     -2.94360000000002
H            -0.01569999999990     1.30659999999985     -1.36560000000000
H            1.07160000000064     0.59120000000013     -2.97560000000010
H            -0.59140000000001     1.08330000000000     -3.09579999999987
C            -2.04979999999854     -2.78669999999842     -5.13360000000056
H            -2.06279999999997     -3.10019999999996     -4.07930000000017
H            -2.78680000000124     -1.96959999999990     -5.21299999999982
C            -2.46589999999864     -3.95379999999543     -6.01320000000328
H            -3.44770000000111     -4.35190000000017     -5.73439999999862
H            -2.51370000000032     -3.65550000000032     -7.06819999999990
H            -1.74159999999916     -4.77529999999861     -5.94039999999986
P            2.01530000000105     -0.00000000000170     -0.00000000000017
O            2.28355782632639     -0.04960161906730     1.63986417490585
N            -2.01529999999942     0.00000000000051     0.00000000000068
C            -0.05739999999979     0.00000000000028     1.57849999999981
C            1.09951012760741     -0.07321302199043     2.35179615381547
C            1.03610057040124     -0.18651152188726     3.72589933142483
H            1.93731146637075     -0.25269313037136     4.31739534880316
C            -0.21923873806693     -0.22352744506434     4.34072050288203
H            -0.26612616274018     -0.30525476436376     5.41684974465266
C            -1.38709334965571     -0.17301660658656     3.60780058771670
H            -2.34757586828554     -0.21807832544752     4.10201168710859
C            -1.30732150058201     -0.07045797280420     2.21479692888415
C            2.76104650136224     -1.64828023711208     -0.49179128759609
H            2.83488569837999     -1.64354087751841     -1.58430353135114
C            1.73838673507020     -2.70338377823414     -0.07521133064997
H            2.02826981337415     -3.69481587352514     -0.42297883652107
H            0.75625129168182     -2.46490411563319     -0.49177734165288
H            1.65119528112563     -2.73301631149996     1.01051704830181
C            4.12596935642145     -1.92802374429142     0.12105671135367
H            4.41658652213754     -2.96121970600385     -0.06846119213080
H            4.09165860205921     -1.77307645260452     1.19742958259372
H            4.89049760270477     -1.27928723737414     -0.29928042989243
C            3.38758270276790     1.21447587671176     -0.34689459307632
H            4.23520033828575     0.91273241987335     0.27881201642632
C            2.89381802063170     2.58210454718304     0.11282210166978
H            3.66806690552559     3.33711867610033     -0.01347208176227
H            2.61177995171671     2.54666630191137     1.16296092267311
H            2.01804467712653     2.87483519643878     -0.46456789502459
C            3.80198078335132     1.24713231686599     -1.80979654728925
H            4.62604030811777     1.94551159795885     -1.95064795704826
H            2.97033322667329     1.57686961853857     -2.42764839487724
H            4.12349148642503     0.26771707564173     -2.15609572108948
C            -2.36349404646001     -0.10163365080079     1.24953014269338
H            -3.40551985228206     -0.24248375227304     1.53261464885615
C            -2.98510799963514     -0.16220443284099     -1.00656311545499
C            -3.48135583688286     -1.44183258146437     -1.29745999714216
C            -4.35490374309510     -1.58411131002213     -2.36679212833929
H            -4.74473231950452     -2.56076202538578     -2.61105505941714
C            -4.74296388353380     -0.49347378228087     -3.11984698398377
H            -5.42285115599455     -0.62496023484689     -3.94883373800562
C            -4.28172620466917     0.76979906617853     -2.79719063876807
H            -4.61860226918241     1.61765871395920     -3.37225662935163
C            -3.40368561545577     0.95716548290852     -1.74218412062051
C            -3.11505910454821     -2.64569595136202     -0.45563872632443
H            -2.35296996799397     -2.35702004645986     0.27536765091907
C            -2.53395534459396     -3.78822768936685     -1.28960611496446
H            -1.63658573894001     -3.46166242098879     -1.81060783996689
H            -3.25077282690415     -4.14816684277505     -2.02353932099281
H            -2.26698233976961     -4.61985085633052     -0.64012998439172
C            -4.34773696777534     -3.12341618999878     0.31820851562235
H            -4.75266148006218     -2.32007626295443     0.93050078969354
H            -4.08525516762880     -3.95381372653373     0.97049854630732
H            -5.12670402805717     -3.45374532244549     -0.36499611953594
C            -2.96132886671390     2.33627825894486     -1.31198432064598
H            -1.98893687621425     2.23964937913180     -0.81228462289163
C            -2.80199432793155     3.31485159929853     -2.47410065262054
H            -2.21397599460816     2.87079209706465     -3.27384300080348
H            -2.29067072605410     4.21097943843027     -2.12959567342411
H            -3.76680575222796     3.61491976141171     -2.87601096243120
C            -3.95796468817941     2.88665283399789     -0.28634126514713
H            -4.00607365906846     2.23965160786291     0.58656235785952
H            -4.95354790682506     2.95499165097206     -0.72092256772030
H            -3.65118645424327     3.87801848675266     0.03930510714130

B 1 12 F
B 1 2 F
B 2 12 F

C P O N H 0
6-31G**
******
Ir 0
SDD
******

Ir 0
SDD

--Link1--
%nprocshared=12
%mem=24GB
%oldchk=TS-CH-Add-1-2
# opt(ts,readfc,nofreeze,noeigentest) guess=read geom=allchk freq int=grid=ultrafine M06 gen pseudo=read

C P O N H 0
6-31G**
******
Ir 0
SDD
******

Ir 0
SDD


