%nprocshared=12
%mem=24GB
# opt int=grid=ultrafine M06 gen pseudo=read

Title

-1 1
Ir            -0.01040000000000     -0.11320000000000     -0.40740000000000
C            0.06619999999998     0.48600000000000     -2.55360000000000
C            -0.31959999999998     -0.86340000000000     -2.54700000000000
H            -1.39010000000000     -1.06660000000001     -2.62170000000000
C            0.52179999999998     -1.93680000000002     -3.19219999999998
C            0.14450000000001     -3.37680000000002     -2.86290000000001
H            1.57969999999999     -1.76080000000000     -2.97630000000001
H            0.42399999999999     -1.80529999999999     -4.28519999999999
H            0.98630000000003     -4.04320000000000     -3.10939999999999
H            -0.01140000000000     -3.47390000000002     -1.77580000000001
H            0.05020000000000     -1.77280000000000     -0.14760000000001
H            -0.06349999999999     1.54969999999999     -0.26859999999999
H            1.07650000000001     0.73780000000001     -2.88100000000002
H            -0.65900000000000     1.27470000000004     -2.74000000000001
C            -1.09020000000010     -3.86789999999998     -3.60889999999992
H            -1.92520000000001     -3.16840000000006     -3.45260000000001
H            -0.88500000000000     -3.84910000000001     -4.69019999999998
C            -1.50759999999976     -5.26500000000009     -3.18280000000004
H            -2.38169999999996     -5.62259999999999     -3.73799999999998
H            -0.69379999999995     -5.98410000000001     -3.34259999999996
H            -1.75700000000000     -5.28950000000000     -2.11390000000002
P            2.20719999999995     -0.00000000000006     -0.00000000000007
C            -2.36945581342891     0.59864771745612     1.36543137174237
H            -3.35965196705254     0.34879836272555     1.76806421422268
H            -2.31184914016725     1.68304986773400     1.26355368914104
C            -0.03210000000002     -0.00000000000001     1.70950000000002
C            1.09220460099226     -0.27447066785368     2.47926386385382
C            0.98772953103705     -0.27703530818885     3.86202325907445
H            1.85666462194139     -0.48821833481688     4.47178000134458
C            -1.25648860010797     0.23688832104877     2.30651338793834
C            -1.35883048526652     0.23214074058890     3.69155339339441
H            -2.30869738060556     0.42643726036289     4.17155084748194
C            -0.23594968755914     -0.02421425369652     4.46180720858652
H            -0.31352825977511     -0.03293497981527     5.53949274379454
C            2.35385786557393     -0.61966954610275     1.74569010592879
H            2.41465002529587     -1.70992822294201     1.66780012278085
H            3.25294289021576     -0.25668363220525     2.24938063627236
N            -2.20720000000007     0.00000000000007     -0.00000000000001
C            4.53864219799219     1.70246351172298     0.35058846558785
H            4.82185346432925     1.03778431326479     1.16163051846516
H            4.86557858394137     2.70788416877073     0.61625168540098
H            5.07095090747509     1.41967086071579     -0.55265186765880
C            3.02745194681361     1.72198173644853     0.13043682628724
C            2.38865071115548     2.43252601979701     1.32396410046235
H            1.30621256289107     2.36117621012054     1.27341401654909
H            2.66849542644953     3.48534496199126     1.31553136881663
H            2.71824260411070     2.00297758905521     2.26641709750574
C            2.72437048411567     2.51516958327884     -1.13860747694506
H            3.15819311399189     2.04372971041099     -2.01690221407940
H            3.13632243076591     3.52060872481666     -1.05605760297131
H            1.65049704451641     2.59140971746540     -1.27615864495639
C            3.51152683242145     -1.17815664901490     -0.83123587358639
C            4.85481499144660     -1.39474910681453     -0.12354456203324
H            5.54685677739951     -0.57141485386476     -0.24878575791574
H            5.32100149244141     -2.27310153717129     -0.57288652082303
H            4.73038376740002     -1.59616721786755     0.93610203002227
C            -3.00724718112955     0.84132337637701     -0.93238314744097
H            -4.07302130681409     0.73600152702571     -0.67190309387536
H            -2.87809208534041     0.43442003729837     -1.93854878843045
C            -2.88471299031348     -1.32046037110070     0.01272515706384
H            -2.70191624384450     -1.80457759664132     -0.94949775077053
H            -3.97136734083968     -1.15413823319736     0.10114090864628
C            -2.49483486800506     -2.29520536341512     1.12145518543134
H            -2.65560351586659     -1.85152590541073     2.10340146656732
H            -1.43801114319476     -2.53823078778633     1.04053498936017
C            3.80090967212664     -0.67086429158571     -2.24730203260660
H            2.89764546343436     -0.31428251427360     -2.73378912478030
H            4.22859616611913     -1.46625011105992     -2.85906276638070
H            4.51670891838122     0.14815982010499     -2.23138817344134
C            2.85403039314616     -2.56495013630085     -0.87164542254909
H            3.09247561300348     -3.12899821616164     0.02800220724984
H            3.21579795628323     -3.13969379309553     -1.72321185261640
H            1.77662641322027     -2.48799461350183     -0.93175732541107
C            -2.70899917034929     2.34405750088775     -0.97777938446226
H            -3.08400765297769     2.83920517881342     -0.07950719890327
H            -1.63406015233357     2.50769644974280     -1.02247056335843
C            -3.38439942527193     2.99840217476106     -2.17694539683624
H            -3.17173471971064     4.06506402308295     -2.18148266331562
H            -4.46402982012255     2.86688726756582     -2.12951142911195
H            -3.02634510983156     2.57396109209751     -3.11196690893301
C            -3.33159043009160     -3.56462445627142     1.00862452811165
H            -3.03917798197229     -4.27496868477548     1.77745518444519
H            -3.19399367393988     -4.03380495222892     0.03663517785072
H            -4.39089355264734     -3.34306980994233     1.13383858806805

C P N H 0
6-31G**
******
Ir 0
SDD
******

Ir 0
SDD


