%nprocshared=12
%mem=24GB
# opt int=grid=ultrafine M06 gen pseudo=read

Title

-1 1
Ir            0.00000000000000     0.00000000000001     -0.31210000000000
P            2.20720000000002     -0.00000000000005     -0.00000000000002
C            -2.46195889345522     0.40939721081008     1.40618974822171
H            -3.36890601210326     -0.08476248979307     1.78425204012609
H            -2.65729764401950     1.48604196023560     1.41959063808632
C            -0.03210000000002     0.00000000000000     1.70950000000000
C            1.10756058600084     -0.19488128073946     2.50523314843595
C            0.98456996481914     -0.21160342547273     3.88353444330951
H            1.85744011451951     -0.35422531506233     4.50815039352201
C            -1.28185273558932     0.15078701182005     2.31530125451383
C            -1.39461098714996     0.11849901667315     3.69579180363122
H            -2.36191388136481     0.23317029448097     4.16909519638942
C            -0.26185155764097     -0.05673594634584     4.47595871897517
H            -0.35006871546307     -0.07733171048092     5.55288112505160
C            2.42524083263543     -0.43711458915268     1.80650425519552
H            2.65008000595003     -1.50533934633980     1.86653325113859
H            3.24859591751391     0.10009226080358     2.28156633623641
N            -2.20720000000003     0.00000000000009     0.00000000000005
C            4.56006555911328     1.76148484644437     0.06112575958942
H            4.88105277365889     1.19838263256902     0.93399589616211
H            4.87835077358593     2.79624537241421     0.19112193635481
H            5.06526912220620     1.36959694376266     -0.81824131473227
C            3.04588826415171     1.71345205304671     -0.10057393507867
C            2.37981172659786     2.52677445375109     1.01242345879921
H            1.30806997812047     2.32286266483673     1.01764824455327
H            2.53896986420994     3.59196596647542     0.85122556599432
H            2.77756676500956     2.26980881825497     1.98944363316779
C            2.63561545615132     2.33351142318819     -1.43640702937702
H            3.12492938637769     1.84973854085524     -2.27649809753472
H            2.88872207700211     3.39264347820229     -1.46087596864813
H            1.55754284856966     2.23385186577501     -1.55853925402298
C            3.30641100387332     -1.29967170849428     -0.86897549627885
C            4.67784715440450     -1.58245698671813     -0.26456148213906
H            5.36360475185345     -0.75631381570219     -0.41822236754215
H            5.10641268505952     -2.46357579800116     -0.74347225721501
H            4.60807997557960     -1.78109383501152     0.80121969816124
C            -2.86165394697392     0.92919023331303     -0.92438775330422
H            -3.88426530751606     1.16645555979884     -0.59033156432066
H            -2.94746927402255     0.44551312904197     -1.90456448506920
C            -2.70717419733263     -1.36297509297633     -0.21526798308817
H            -2.59305050650836     -1.60740503220734     -1.27780620464627
H            -3.78443612163211     -1.41718589530055     0.01924019669615
C            -1.95615560887460     -2.41340237586484     0.59939302009335
H            -2.11950793425043     -2.24889333993846     1.66404844333277
H            -0.88385427229740     -2.28894496774875     0.41554287437996
C            3.44733247476319     -0.90201853837551     -2.33735633782112
H            2.48128191436095     -0.58257425770904     -2.72895539986511
H            3.79469442453400     -1.74720661657668     -2.93161409448017
H            4.16012605379932     -0.09113890228879     -2.46309948195473
C            2.45511991122269     -2.57095795723262     -0.80404036485150
H            2.34478264366120     -2.91986252398542     0.21954240633860
H            2.90472187144603     -3.36888742163570     -1.39376420485930
H            1.45870292691732     -2.36434195860948     -1.19524973095695
C            -2.05017757195646     2.21240719773514     -1.09466326362769
H            -1.98156486549633     2.74447404370703     -0.14499541945865
H            -1.02579767047247     1.93283361429950     -1.37850677473688
C            -2.65590174291802     3.12955029962429     -2.14712582450478
H            -2.05722286911260     4.03067255530303     -2.25537157639037
H            -3.66527354064156     3.42231732856745     -1.86177024031486
H            -2.70741081987021     2.63257165439246     -3.11474642587795
C            -2.39539273195820     -3.82248532230838     0.22550351114442
H            -1.85095304666200     -4.55305958060974     0.81781588438499
H            -2.20293973608214     -4.02421776623653     -0.82670450527508
H            -3.45994174235779     -3.95842007118606     0.40925656922089

C P N H 0
6-31G**
******
Ir 0
SDD
******

Ir 0
SDD


