%nprocshared=12
%mem=24GB
# opt int=grid=ultrafine M06 gen pseudo=read

Title

-1 1
Ir            -0.00000000000001     -0.00010000000002     -0.30910000000000
H            -0.02639999999999     0.73459999999999     -1.74220000000000
H            0.02630000000001     -0.73490000000001     -1.74210000000000
P            2.20719999999995     0.00000000000004     0.00000000000010
C            -2.45578769258815     0.38647054033977     1.41888989468739
H            -3.36703050775984     -0.10605418220704     1.79086525972588
H            -2.64215416605060     1.46355237213908     1.45301423564952
C            -0.03210000000000     0.00000000000002     1.70949999999997
C            1.09574704384012     -0.20882678744028     2.50534232084031
C            0.97836126047099     -0.26299695806274     3.88665979206506
H            1.85368821873392     -0.41481419486572     4.50722111168299
C            -1.27703660117833     0.11630480211064     2.31991163291345
C            -1.40067247712972     0.04879093275586     3.70058900963230
H            -2.37256078881739     0.14103815717159     4.17112898926282
C            -0.26869385605018     -0.13220251110771     4.47810800772135
H            -0.35921155475759     -0.17794818036029     5.55501924715282
C            2.41394999991009     -0.43499350746375     1.80785536500174
H            2.65204788719136     -1.50189335832644     1.87028804089836
H            3.23425469651228     0.10678836917236     2.28630316895423
N            -2.20720000000004     -0.00000000000003     -0.00000000000004
C            4.57771985280235     1.67569022278093     0.18342200652613
H            4.81561805878489     1.10294247753471     1.07683824311358
H            4.92080860586703     2.69854395634551     0.34037509432640
H            5.13505646070071     1.26744142375294     -0.65557310698723
C            3.07998381774278     1.68518167751130     -0.10611821854789
C            2.35675385054004     2.55284450660636     0.92707296070370
H            1.27932205931379     2.47803823733518     0.77866179918600
H            2.64951858406242     3.59606296380548     0.81425015357248
H            2.58377799390480     2.24671283690839     1.94503596760657
C            2.82374296828332     2.28698810392114     -1.48747046245602
H            3.35443724505726     1.74787035516547     -2.26524297240089
H            3.15303899368610     3.32524880889352     -1.50806942303026
H            1.75925727703927     2.24933149092973     -1.71041951729389
C            3.26545430522483     -1.34902344829535     -0.84135829142526
C            4.63271427569892     -1.62860731823347     -0.21928002969105
H            5.33588863083856     -0.82413355954213     -0.40299063363962
H            5.04366092963752     -2.53383593312155     -0.66659735843252
H            4.56624099428196     -1.79146633461096     0.85287550705124
C            -2.97307346126792     0.89925335508592     -0.88309653016235
H            -4.04339190805360     0.85377514947206     -0.62662656166725
H            -2.85510417700836     0.52657024487180     -1.90381756846051
C            -2.70576056466743     -1.36713785776637     -0.21679342979011
H            -2.61098120186785     -1.59358065425026     -1.28297470994261
H            -3.77697927721404     -1.41548071664540     0.04323121288569
C            -1.95393020316058     -2.43655776745114     0.57059788567357
H            -2.03876463191998     -2.25046365546136     1.64248946742446
H            -0.89308838589339     -2.38826158897486     0.30506248526589
C            3.42429263759820     -1.00236166598214     -2.32038664696665
H            2.47579074989967     -0.64809749498714     -2.71939038793888
H            3.73036223583657     -1.88460744952534     -2.88146875346160
H            4.18107960881402     -0.23651227480689     -2.46753047536335
C            2.41161624720652     -2.61721115814590     -0.73670176588189
H            2.25816830670753     -2.91375119413946     0.29881452086079
H            2.89775353628320     -3.44335322176055     -1.25422800423696
H            1.43870059560815     -2.44519863220866     -1.19397850490046
C            -2.49963829839975     2.35509602642324     -0.85469352579634
H            -2.90735869004327     2.88497703642216     0.00866688327931
H            -1.40808788950465     2.35841027160353     -0.77512828175333
C            -2.91737674622988     3.09570203514329     -2.11865194986412
H            -2.59977376070639     4.13416972808978     -2.06780559325274
H            -3.99889545338239     3.07387447401367     -2.23834327103885
H            -2.46219576307682     2.64019074529905     -2.99426623081588
C            -2.50081860406342     -3.82177351522451     0.25183330842827
H            -1.95080238798529     -4.58185539324039     0.80069022870096
H            -2.41253779210366     -4.03323320533626     -0.81149741511887
H            -3.55115051960854     -3.89328161320238     0.52921162356176

C P N H 0
6-31G**
******
Ir 0
SDD
******

Ir 0
SDD


