%nprocshared=12
%mem=24GB
%chk=TS-CH-Add-1-2
# opt=(modredundant) int=grid=ultrafine M06 gen pseudo=read

Title

-1 1
Ir            -0.00040000000000     0.10810000000001     -0.34670000000000
C            0.06129999999999     0.31670000000000     -2.63970000000000
C            -0.34020000000001     -1.00749999999999     -3.28000000000000
H            -1.35050000000000     -1.28060000000001     -2.95440000000000
C            -0.31100000000000     -0.94090000000001     -4.80530000000000
C            -0.66809999999999     -2.25270000000002     -5.49310000000000
H            0.68700000000000     -0.60959999999999     -5.13360000000000
H            -1.01360000000001     -0.15630000000000     -5.13610000000000
H            -0.61210000000000     -2.11770000000000     -6.58480000000001
H            0.08609999999999     -3.01829999999999     -5.24680000000000
H            0.31270000000001     -1.82999999999999     -2.94360000000000
H            -0.01570000000000     1.30660000000000     -1.36560000000000
H            1.07159999999999     0.59120000000000     -2.97560000000001
H            -0.59140000000000     1.08330000000001     -3.09580000000000
C            -2.04980000000001     -2.78669999999999     -5.13359999999999
H            -2.06279999999999     -3.10020000000002     -4.07930000000000
H            -2.78679999999998     -1.96960000000001     -5.21300000000000
C            -2.46589999999995     -3.95380000000000     -6.01320000000002
H            -3.44769999999998     -4.35190000000001     -5.73439999999999
H            -2.51369999999999     -3.65550000000001     -7.06819999999998
H            -1.74160000000001     -4.77529999999997     -5.94040000000000
P            2.20719999999984     -0.00000000000023     0.00000000000012
C            -2.45793828302073     0.39187480033873     1.41154456100690
H            -3.36927524996569     -0.10047318824293     1.78399523079295
H            -2.63785755052364     1.46912758451904     1.43445135443551
C            -0.03210000000002     -0.00000000000001     1.70950000000000
C            1.09061479209709     -0.19042407429994     2.51202605503903
C            0.96968973797894     -0.22516914882468     3.89301345290912
H            1.84475467263649     -0.36307561233211     4.51639058368930
C            -1.28032301110916     0.12699786360523     2.31568956837606
C            -1.40724641968645     0.07913435427310     3.69580826311114
H            -2.37989459998408     0.18101628986055     4.16165857378962
C            -0.27804260610216     -0.08826769895932     4.48091422014118
H            -0.37102776555672     -0.11452799305145     5.55780547055031
C            2.40188446019473     -0.42448964762299     1.81430137997687
H            2.63512980847745     -1.48974176103339     1.89594438139347
H            3.22174745154919     0.12227473589055     2.28445927074938
N            -2.20720000000001     0.00000000000021     0.00000000000010
C            4.70377832758955     1.48835370751127     0.19780079880849
H            4.88669698443857     0.90738532116604     1.09804797155148
H            5.12212581064077     2.48316093415624     0.35129213729131
H            5.23808773936111     1.03189575753454     -0.63145420162222
C            3.21426282377813     1.61187196584695     -0.11036464877385
C            2.54582105613866     2.54381048520819     0.90413678186023
H            1.46207774074824     2.48045634409291     0.79429607364534
H            2.85907443773643     3.57236296196412     0.73289904408573
H            2.80067735344554     2.27814385086557     1.92582114015318
C            3.03739774060743     2.22775004786322     -1.49756374498633
H            3.42796284615198     1.58213503739440     -2.27787823307096
H            3.56605338797677     3.17905422539087     -1.54946418380951
H            1.98327834407668     2.40718962220767     -1.68847222385840
C            3.21070167589114     -1.44259989661303     -0.77085180083060
C            4.52642536121089     -1.82026744819446     -0.08901611149547
H            5.29723254112957     -1.07730077412068     -0.26112386008097
H            4.87853117039402     -2.76304308058886     -0.50969118451720
H            4.41709591880249     -1.96088130678631     0.98211619285660
C            -3.07125379928545     0.79404909157304     -0.89168834906163
H            -4.13063451556503     0.60524455398574     -0.65421154057791
H            -2.89320076055587     0.44100223928399     -1.91103967771446
C            -2.57370031239070     -1.41165459475569     -0.18534825456116
H            -2.53785731323340     -1.63373775201509     -1.25648920315834
H            -3.61497893187609     -1.57142520806012     0.14381234293045
C            -1.66625581908610     -2.40177651900530     0.53705588594676
H            -1.74169988114917     -2.26414714884693     1.61656128363242
H            -0.62828286261936     -2.20654473460368     0.25127207061135
C            3.48838720063540     -1.17594776001761     -2.24880009436519
H            2.58702527329224     -0.84320174522727     -2.75316819565679
H            3.83359790960913     -2.09037352213457     -2.73226597856723
H            4.26282388717633     -0.42358467328206     -2.37445475909741
C            2.24520367578729     -2.62785611794985     -0.66960933041001
H            2.03205630799919     -2.88285924590499     0.36682658277217
H            2.66538566761540     -3.50923788618293     -1.15396063235264
H            1.30670676522917     -2.38105576159208     -1.16208485963449
C            -2.80906674137204     2.30250332558739     -0.86349212414468
H            -3.35273917135757     2.77619858220473     -0.04410810143196
H            -1.74069302464593     2.46926217359683     -0.70400362694363
C            -3.23903175258315     2.95656139323887     -2.17154395783314
H            -3.06493086485721     4.02891892034340     -2.13220741708403
H            -4.29801654713895     2.78783119604367     -2.35723542860888
H            -2.67470874012283     2.55004223240774     -3.00739382162161
C            -2.03317484433444     -3.83523186289171     0.17693913511420
H            -1.38680846894101     -4.53402601651236     0.70215718449761
H            -1.92514191375338     -4.00612249645089     -0.89268353729105
H            -3.06394771613706     -4.04992383662749     0.45399815692994

B 1 12 F
B 1 2 F
B 2 12 F

C P N H 0
6-31G**
******
Ir 0
SDD
******

Ir 0
SDD

--Link1--
%nprocshared=12
%mem=24GB
%oldchk=TS-CH-Add-1-2
# opt(ts,readfc,nofreeze,noeigentest) guess=read geom=allchk freq int=grid=ultrafine M06 gen pseudo=read

C P N H 0
6-31G**
******
Ir 0
SDD
******

Ir 0
SDD


