%nprocshared=12
%mem=24GB
# opt int=grid=ultrafine M06 gen pseudo=read

Title

0 1
Ir            0.00610000000000     -0.03990000000000     -0.35490000000000
C            0.05870000000000     0.31170000000000     -2.53020000000000
C            -0.56840000000000     -0.60590000000000     -3.57980000000000
H            -0.55740000000000     -0.09390000000000     -4.55880000000000
C            0.11170000000000     -1.95670000000000     -3.74730000000000
C            -0.53710000000000     -2.86500000000000     -4.78520000000000
H            0.11470000000000     -2.47690000000000     -2.77490000000000
H            1.17450000000000     -1.80310000000000     -4.00750000000000
H            -0.06040000000000     -3.85750000000000     -4.75080000000000
H            -1.59390000000000     -3.03160000000000     -4.51290000000000
H            -1.63220000000000     -0.79370000000000     -3.36100000000000
H            0.00490000000000     -1.41500000000000     -1.06210000000000
H            1.10520000000000     0.46700000000000     -2.83880000000000
H            -0.41150000000000     1.30760000000000     -2.63100000000000
C            -0.46970000000000     -2.34560000000000     -6.21559999999999
H            -1.02540000000000     -1.40080000000000     -6.29680000000000
H            0.57610000000000     -2.10150000000000     -6.46040000000000
C            -1.01839999999999     -3.34659999999999     -7.21879999999999
H            -0.97750000000000     -2.96709999999999     -8.24570000000000
H            -0.45259999999999     -4.28670000000000     -7.18800000000000
H            -2.06530000000000     -3.59079999999999     -6.99640000000000
P            2.14079999999999     -0.00000000000004     -0.00000000000001
N            -3.30841900147501     0.04460793952855     -0.70840860084638
N            -2.55544952179491     0.23023437072929     1.27545734585019
N            1.88662576456972     -0.60983790266162     2.73424366964353
N            3.96390267022072     -0.80764111391031     1.96837387516797
C            2.98234059884715     1.61072280685909     -0.34120167790910
C            3.39584347673875     2.44008152030264     0.69908919316647
H            3.30391917114071     2.08930282112337     1.71986335709939
C            3.92949866607689     3.68978905975471     0.44271949518856
H            4.25982065277453     4.31199761366912     1.26305749182338
C            4.03529359898478     4.14954250713533     -0.85928098261694
H            4.44898303751046     5.12706747767856     -1.06033989771665
C            3.59167371810322     3.35176005472212     -1.90219032024223
H            3.65593617956895     3.70763137789879     -2.92093747916136
C            3.06367195589708     2.10178384392527     -1.64421110300852
H            2.71299424798603     1.49239920752792     -2.46330965630639
C            3.13241423252512     -1.15974242471118     -1.02866298951608
C            4.19636291917802     -0.84254234622612     -1.86924890020256
H            4.55808396824722     0.17328237171809     -1.93841850423389
C            4.79720461673242     -1.82430040364702     -2.63633691719168
H            5.60734457273879     -1.55977784239654     -3.30170550945406
C            4.36395159732599     -3.13839463716096     -2.56512367852238
H            4.83189962050109     -3.89786182396690     -3.17422796675734
C            3.32596594255961     -3.47039072096374     -1.70718286967216
H            2.98569395713442     -4.49386512244725     -1.64208557159004
C            2.72068848594701     -2.49135652962454     -0.94695197003239
H            1.89524767321726     -2.73307446699959     -0.28771154206417
C            2.62419674328763     -1.35344861876329     3.62810938084629
H            2.19123012845368     -1.78222487275288     4.50731215230558
C            3.88378955524577     -1.47183416572858     3.15658354938088
H            4.72942431426629     -1.97923641379933     3.57546643194967
C            2.71924681213799     -0.24976200604558     1.68192371080783
C            0.57881711078354     -0.18440412415545     2.96517919609775
C            -0.34979999999987     -0.00000000000008     1.91800000000010
C            -1.64596179669846     0.24402332953299     2.33434049780415
C            -2.03956876045790     0.43059004814599     3.65183476637351
H            -3.06305032089990     0.64584870445260     3.91794401704022
C            -1.07492065954237     0.34692820803894     4.64228783417368
H            -1.33762977948125     0.52660775882962     5.67459562177319
C            0.21802076959417     0.01628830007874     4.30462463748190
H            0.96834295170538     -0.05199217946340     5.07996917578652
C            -2.14079999999951     -0.00000000000001     0.00000000000016
C            -4.38223451132247     0.25790871026348     0.11161328833871
H            -5.38591593124403     0.31227878852164     -0.25696100086655
C            -3.90521822448457     0.37594939551350     1.36857325814290
H            -4.41824536909719     0.55059621987178     2.29003515044029
C            -3.52196708530769     -0.07247348876702     -2.12109413527129
H            -2.84940880309451     0.59308006274000     -2.65690957444291
H            -4.55047794967654     0.21179657969863     -2.34472978827996
H            -3.36684982535314     -1.10223096094301     -2.44610220598109
C            5.16786757850368     -0.61566904278550     1.21855560061900
H            5.06882868503908     0.26473681611023     0.58661395483372
H            5.38093541754886     -1.48253246827686     0.58505060801687
H            6.00634034195086     -0.46719775014517     1.90227701828147

P C H N 0
6-31G**
******
Ir 0
SDD
******

Ir 0
SDD

