%nprocshared=12
%mem=24GB
# opt int=grid=ultrafine M06 gen pseudo=read

Title

0 1
Ir            0.00000000000000     -0.00000000000000     -0.31210000000000
P            2.14079999999999     -0.00000000000000     0.00000000000005
N            -3.25352317576699     -0.00077897973784     -0.77551004595333
N            -2.59769875480288     0.18313728820437     1.26102751352402
N            1.88479588684811     -0.62145581860994     2.72480895450056
N            3.96232966924404     -0.84539212000399     1.97113193925450
C            2.98302638426358     1.58183575787342     -0.40448674132512
C            3.51857466507041     2.42255093721340     0.56520407749051
H            3.53882804651985     2.08712938047799     1.59378838902793
C            4.01708968850983     3.66589823222205     0.22158378197825
H            4.44209607649883     4.30465418286016     0.98336707840090
C            3.96686951549821     4.09815340410237     -1.09317227932618
H            4.35359052907641     5.07093084392898     -1.36065832425400
C            3.40139663716180     3.28419747541285     -2.06359166983904
H            3.34449196372916     3.62550629806893     -3.08798437477624
C            2.90374413769114     2.04415449653342     -1.71693922633249
H            2.45222284866982     1.40922404625821     -2.47076551073959
C            3.04879780615093     -1.17075076739993     -1.06613039382161
C            4.17062782965893     -0.89649859503399     -1.85165430545519
H            4.61304006167699     0.09020512840963     -1.84074520083879
C            4.71140048335900     -1.87817777727078     -2.65904812481230
H            5.57360246334439     -1.65047701728901     -3.27110563769437
C            4.15552909516879     -3.14834455352451     -2.69709213002802
H            4.58290653706947     -3.90886173437175     -3.33401841485353
C            3.04154875809405     -3.43342594492910     -1.91659871897900
H            2.59959234544373     -4.41968268876393     -1.94779333590038
C            2.49727504385140     -2.45567963972793     -1.11318764615912
H            1.61830912149831     -2.65513645206009     -0.50838409147775
C            2.58971894564908     -1.43816994896669     3.58461907931497
H            2.12974529008213     -1.90555005835896     4.42977067189199
C            3.84813426338302     -1.57404956401792     3.11716846979430
H            4.67052686024030     -2.13646975643139     3.51200045815010
C            2.74267089424166     -0.22030723409026     1.69820391313410
C            0.57707713650913     -0.21767364604848     2.95804145885471
C            -0.34980000000010     0.00000000000035     1.91799999999988
C            -1.68017976787759     0.17551690867580     2.31656813800966
C            -2.08854868050900     0.26250275117678     3.64046059474838
H            -3.12575986367970     0.40791074934674     3.89908761655151
C            -1.13087921983492     0.15702866374234     4.63577812261454
H            -1.41373290861141     0.25678289298453     5.67307467866805
C            0.17939907374825     -0.09887635339284     4.29975691751216
H            0.91908453026822     -0.18633377833178     5.08195316859411
C            -2.14079999999950     -0.00000000000058     0.00000000000054
C            -4.37627135891371     0.16604024765512     -0.00743260835397
H            -5.36177913541194     0.18994401855459     -0.42591099802685
C            -3.96038488908200     0.28030417177849     1.27701036028682
H            -4.53346442332104     0.42097343087016     2.16919454027450
C            -3.25720118919287     -0.14940057221971     -2.20090239283791
H            -2.22647626849753     -0.26298996076889     -2.53805891148647
H            -3.69493098875374     0.72951472109779     -2.68057563331174
H            -3.82791443593355     -1.03219958780454     -2.49845120775937
C            5.17072086200654     -0.67683981870158     1.22473568151190
H            5.09757489240530     0.22195096365970     0.61591356234479
H            5.35264442945089     -1.53490713214028     0.56928443761536
H            6.01659260531771     -0.57417259101667     1.90785538608848

P C H N 0
6-31G**
******
Ir 0
SDD
******

Ir 0
SDD


