%nprocshared=12
%mem=24GB
# opt int=grid=ultrafine M06 gen pseudo=read

Title

0 1
Ir            0.00000000000000     -0.00010000000000     -0.30910000000000
H            -0.02640000000000     0.73460000000000     -1.74220000000000
H            0.02630000000000     -0.73490000000000     -1.74210000000000
P            2.14080000000001     -0.00000000000003     0.00000000000002
N            -3.26018046761259     -0.04298598952733     -0.75777295637037
N            -2.58285430619270     0.23931443088604     1.25772900561921
N            1.87760968206074     -0.63429488628816     2.72831471185521
N            3.94861302749426     -0.87518764959767     1.96380074456943
C            2.98794176256038     1.59292634470765     -0.36438978435929
C            3.55653764075855     2.39569233957045     0.61733993280241
H            3.58203234205365     2.04458847545931     1.64160928829366
C            4.08565219183157     3.63253204782222     0.29234961437246
H            4.53466740458310     4.24473755477221     1.06216193299804
C            4.03512243119740     4.08977045844851     -1.01328327743146
H            4.44472837478694     5.05750894321370     -1.26432906080831
C            3.44164138482291     3.30901864515463     -1.99474992098094
H            3.38652236044466     3.67049074066109     -3.01171782677285
C            2.91355215359288     2.07569889838030     -1.67009169806979
H            2.43274106620994     1.46304665100363     -2.42100943178635
C            3.08765993098882     -1.14619140281006     -1.08244905323045
C            4.19271258470146     -0.83315472494292     -1.87017729177870
H            4.59942313809134     0.16818985511293     -1.86582584629144
C            4.76182003091474     -1.79615361833569     -2.68307776647941
H            5.60735561277548     -1.53784708508978     -3.30516226330872
C            4.25055694746165     -3.08414932513787     -2.71463582655492
H            4.69759138614643     -3.82916944872556     -3.35643232593610
C            3.15582165052948     -3.40788533863075     -1.92654059453799
H            2.74737148903140     -4.40811213246130     -1.95341287488630
C            2.58219520228511     -2.44670231235811     -1.12039069286332
H            1.70642038677245     -2.67534073975347     -0.52167410345174
C            2.58964254031808     -1.42113817381398     3.60605394898831
H            2.14033763169015     -1.85815955667766     4.47336237472519
C            3.84587587210166     -1.56743965955213     3.13451832778901
H            4.67315257044274     -2.11344574018415     3.54142866505699
C            2.72497253525893     -0.27105665650633     1.68506755694548
C            0.56737567058612     -0.20850235568959     2.96360354460790
C            -0.34980000000014     0.00000000000058     1.91800000000012
C            -1.66315441272089     0.23937103830257     2.31934390913749
C            -2.06540230337050     0.38784870437742     3.63637103367804
H            -3.09280786062577     0.59673294774107     3.89533622157533
C            -1.10886433046691     0.27203575167651     4.63430259681930
H            -1.38369353826225     0.41967920995394     5.66874626858304
C            0.18804590413138     -0.04911558101357     4.30434731759870
H            0.92716745397292     -0.14193679021663     5.08795158719566
C            -2.14079999999918     0.00000000000028     -0.00000000000096
C            -4.37164607725412     0.15914533232260     0.01668000705263
H            -5.36293200080695     0.15952557850278     -0.38812119996758
C            -3.94312653095161     0.33534800167952     1.28967689381309
H            -4.50108302678382     0.51580732128174     2.18477239440104
C            -3.31884708368551     -0.27544867911101     -2.17201931429879
H            -2.30883968440515     -0.45292255652030     -2.53289460002961
H            -3.73984198328718     0.59370910061021     -2.68078621645604
H            -3.94272957096453     -1.14564925784575     -2.38442837316718
C            5.15314530132586     -0.72252674283698     1.20672549498062
H            5.08961586023856     0.17714915811173     0.59751518188612
H            5.31844770820928     -1.58256693294584     0.54973627311829
H            6.00328044299478     -0.63248201353600     1.88596504614628

P C H N 0
6-31G**
******
Ir 0
SDD
******

Ir 0
SDD


