%nprocshared=12
%mem=24GB
%chk=TS-1olefin-disso
# opt=(modredundant) int=grid=ultrafine M06 gen pseudo=read

Title

0 1
Ir            -0.00410000000000     -0.00800000000000     -0.29060000000000
C            -0.06270000000000     0.40950000000000     -3.03610000000000
C            -0.55670000000000     -0.68530000000000     -3.62760000000000
H            -1.48990000000000     -0.59790000000000     -4.19480000000000
H            0.90839999999999     0.39160000000000     -2.53220000000000
C            0.10320000000000     -2.02020000000000     -3.67120000000000
H            0.90410000000000     -2.05870000000000     -2.92280000000000
H            -0.61710000000000     -2.80580000000000     -3.39270000000000
C            0.68210000000000     -2.33359999999999     -5.04960000000000
H            1.38720000000000     -1.53490000000000     -5.33200000000000
H            -0.11500000000000     -2.31610000000000     -5.81040000000000
C            1.39620000000000     -3.67630000000000     -5.07900000000000
H            0.68960000000000     -4.46880000000000     -4.78920000000001
H            2.18000000000000     -3.67720000000000     -4.30460000000000
H            -0.06590000000000     1.67850000000000     -0.25540000000000
H            0.04210000000000     -1.69950000000000     -0.34360000000000
C            2.00210000000000     -3.98780000000000     -6.43650000000000
H            2.51550000000001     -4.95509999999999     -6.44429999999999
H            1.22990000000000     -4.01480000000000     -7.21560000000000
H            2.73150000000000     -3.22130000000000     -6.72700000000000
H            -0.55460000000000     1.37559999999999     -3.11280000000000
P            2.14079999999998     0.00000000000001     0.00000000000003
N            -3.28361071952753     -0.07357484179272     -0.72920989740357
N            -2.57043248264458     0.26752127822513     1.26219197246938
N            1.88746801795941     -0.65069515757321     2.71223940113040
N            3.96043776153444     -0.91025891353990     1.94300719215681
C            3.00829432454198     1.59560028152833     -0.34084656739737
C            3.54345644507160     2.36185468382898     0.68871102006481
H            3.52615182175272     1.97216617448106     1.69814128743493
C            4.08380531786760     3.61070196421624     0.43946883534596
H            4.50036529021246     4.18733169022950     1.25344346331200
C            4.08327569149520     4.12761267327062     -0.84429717634690
H            4.49995834097074     5.10494378611944     -1.04009462615946
C            3.52536991108406     3.38955632922881     -1.87511768336208
H            3.50193020297690     3.79140040433642     -2.87857447726108
C            2.98709701064815     2.14266875900370     -1.62189992779220
H            2.53991939390355     1.59248035129340     -2.43843567949463
C            3.12013173009940     -1.17868622889561     -1.01062786922532
C            4.07186121466798     -0.83046598335809     -1.96903278882468
H            4.34336991352986     0.20423733647761     -2.12117424160476
C            4.68151220985682     -1.80647366607100     -2.73645264202954
H            5.40285482731613     -1.51834054668975     -3.48856443258210
C            4.37216450322622     -3.14389166170685     -2.55220358140040
H            4.84633482614009     -3.90065877460358     -3.16021477726120
C            3.45051169617518     -3.50363558018831     -1.57715307344790
H            3.21098445299064     -4.54588122370183     -1.41937002461217
C            2.83293947949750     -2.53217905302855     -0.81834101075082
H            2.09636395113857     -2.80290206155805     -0.07441656876205
C            2.60256006852590     -1.42995503325376     3.59838339431168
H            2.15140225887456     -1.85949375732141     4.46805742380268
C            3.85607899666267     -1.58635839192427     3.12050873793717
H            4.68251722861221     -2.13160653142179     3.53093456021962
C            2.74041234385035     -0.28788525264958     1.67304098186888
C            0.59808056476919     -0.19651421036235     2.94090737145181
C            -0.34979999999980     0.00000000000004     1.91800000000000
C            -1.65496081368752     0.27023167989772     2.31013616852810
C            -2.03613543439614     0.43754740345877     3.63972828740278
H            -3.06069032911476     0.64261581681289     3.90470233533279
C            -1.06724483068273     0.33781008760621     4.62192380496114
H            -1.32540966338884     0.50182462251238     5.65734975148701
C            0.22648451676683     0.01303826939924     4.28059181107874
H            0.98076117990825     -0.05552551317092     5.05059364115047
C            -2.14079999999991     -0.00000000000015     -0.00000000000027
C            -4.38077925728375     0.15567119597982     0.05905915689015
H            -5.37816804717336     0.14188795649683     -0.33035488649966
C            -3.93257385966775     0.36887926038981     1.31586153764209
H            -4.47279639512874     0.57311488966108     2.21569668111980
C            -3.38533842103257     -0.41007181647536     -2.11846631113579
H            -2.66450795910733     -1.19245380779690     -2.34633736864703
H            -3.17907834394680     0.45963010944519     -2.74519702221997
H            -4.39206404814675     -0.76928401220853     -2.32892512336092
C            5.16862724617367     -0.74188836135202     1.19356014224959
H            5.08493558787712     0.14007360520177     0.56097041790659
H            5.36519564840483     -1.61243498771894     0.55976623201751
H            6.01065806803316     -0.60924064143896     1.87603859047820

B 1 2 F
B 1 3 F
B 2 3 F

P C H N 0
6-31G**
******
Ir 0
SDD
******

Ir 0
SDD

--Link1--
%nprocshared=12
%mem=24GB
%oldchk=TS-1olefin-disso
# opt(ts,readfc,nofreeze,noeigentest) guess=read geom=allchk freq int=grid=ultrafine M06 gen pseudo=read

P C H N 0
6-31G**
******
Ir 0
SDD
******

Ir 0
SDD


