%nprocshared=12
%mem=24GB
# opt int=grid=ultrafine M06 gen pseudo=read

Title

-1 1
Ir            -0.01039999999968     -0.11320000000003     -0.40740000000089
C            0.06620000000107     0.48599999999687     -2.55360000000060
C            -0.31960000000145     -0.86339999999968     -2.54700000000052
H            -1.39009999999985     -1.06660000000005     -2.62170000000002
C            0.52180000000320     -1.93679999999794     -3.19220000000136
C            0.14449999999970     -3.37679999999972     -2.86289999999863
H            1.57970000000017     -1.76079999999995     -2.97630000000033
H            0.42400000000020     -1.80530000000046     -4.28520000000076
H            0.98630000000157     -4.04320000000076     -3.10940000000001
H            -0.01139999999980     -3.47390000000041     -1.77580000000003
H            0.05019999999992     -1.77279999999991     -0.14759999999991
H            -0.06349999999976     1.54969999999990     -0.26859999999989
H            1.07649999999932     0.73779999999752     -2.88099999999949
H            -0.65899999999994     1.27469999999932     -2.73999999999985
C            -1.09020000000811     -3.86790000000018     -3.60889999999981
H            -1.92519999999927     -3.16840000000085     -3.45260000000031
H            -0.88500000000012     -3.84910000000037     -4.69020000000005
C            -1.50759999999974     -5.26499999999959     -3.18280000000080
H            -2.38169999999960     -5.62259999999911     -3.73800000000089
H            -0.69379999999980     -5.98410000000000     -3.34259999999953
H            -1.75699999999967     -5.28949999999995     -2.11389999999826
O            3.58994464027928     -0.03831743041717     1.59740408388935
O            -3.59948239066096     0.23929676527472     1.57302410831084
N            2.00670000000037     -0.00000000000017     0.00000000000229
N            -2.00670000000006     0.00000000000052     -0.00000000000160
C            -0.00700000000007     -0.00000000000032     1.54610000000026
C            1.20873623145879     -0.00143356846636     2.23401298539467
C            1.20789516716425     0.05959589191187     3.62722616770044
H            2.15334323578790     0.04763302913025     4.14327886381931
C            0.00058393841423     0.13713211959980     4.32215575152319
C            -1.20921044549670     0.18019014573332     3.62231524688041
H            -2.14822072061013     0.25535482492726     4.14905687511444
C            -1.22105505972080     0.11498657915791     2.23110985058260
C            2.28608008965199     -0.02070705135868     1.28304188831748
C            3.25873527148139     0.26615284525423     -0.69688604791187
H            3.34012399730636     -0.34404039984635     -1.60075350883536
C            4.30448808479227     -0.11316638669889     0.36602517770709
H            4.67153021455248     -1.13862164913864     0.23955562000223
H            5.14717485337003     0.57667567733216     0.41395525644782
C            3.34588467555933     1.76881357860479     -1.07768736047267
H            4.18403945377360     1.89795561503935     -1.76601545687738
H            2.42119840915535     2.03669726681154     -1.58900010805693
C            3.52693821147294     2.64785673797991     0.12894308692187
C            4.78148271638403     3.14429675313843     0.46524707062215
H            5.62794306062107     2.94706116832363     -0.17987560082595
C            4.95894232592740     3.90287077503635     1.60910024744152
H            5.93980884192693     4.28461801878095     1.85381860000645
C            3.88445235788053     4.16853203955091     2.44010364193425
H            4.02524865775160     4.75035532040138     3.33946222620057
C            2.62814743444516     3.69430928593420     2.10511690014859
H            1.78003385277476     3.90407787797687     2.74070516070241
C            2.44885339146244     2.94971988148341     0.95341955490230
H            1.46239219510537     2.60226609178646     0.68989561947476
C            -0.04700920392660     0.14961010429644     5.84652789829940
C            1.34507620827343     0.19863792688757     6.48258642051513
H            1.24613985493143     0.22805129285500     7.56603707797639
H            1.88643096724233     1.08812709648577     6.16904668307907
H            1.92687713480703     -0.68289641623713     6.22500299965765
C            -0.83038103758315     1.37629570500007     6.33380762841504
H            -0.83281732399082     1.40908432126100     7.42143651757009
H            -1.86218801266219     1.35369022016935     5.99604272892459
H            -0.36861125132386     2.28824193036181     5.96196878419155
C            -0.74427043937356     -1.13439987758175     6.31930665941235
H            -0.78630555471939     -1.16183447714307     7.40627555561475
H            -0.19581614918004     -2.00762290839127     5.97240058518552
H            -1.75867209252135     -1.19626417622016     5.93498176333375
C            -2.29270149746361     0.12299512537615     1.27588323526220
C            -4.29717668726957     0.29499046039661     0.33051633906652
H            -4.59245033045662     1.33403314094480     0.14345992261711
H            -5.18951020929286     -0.32910585307886     0.39650495619847
C            -3.27280767245507     -0.21800910347974     -0.69627415801575
H            -3.30885563203719     0.34112626559096     -1.63412214002225
C            -3.45173823416866     -1.73164082980419     -0.94444209981565
H            -2.48722281640589     -2.14179966022720     -1.25000582779574
H            -3.70706912147130     -2.20527112247421     0.00650982176401
C            -4.48756048832355     -2.05671944082124     -1.98067872361703
C            -4.35042654000427     -1.61153461577018     -3.29134120758852
H            -3.50126844011539     -1.00263297163919     -3.56862468921182
C            -5.28470922567986     -1.94727604786159     -4.25374185295578
H            -5.15985785129050     -1.59705866514165     -5.26795945170844
C            -6.37231954183633     -2.73741874557932     -3.92223930605139
H            -7.09809643589674     -3.00563026441141     -4.67539666102156
C            -6.52024140868438     -3.18507870051023     -2.62149994880761
H            -7.36341259189354     -3.80531662790738     -2.35476742362856
C            -5.58550029904825     -2.84420339446209     -1.65944643902540
H            -5.70339128762586     -3.20612197940230     -0.64769281356068

C O N H 0
6-31G**
******
Ir 0
SDD
******

Ir 0
SDD


