%nprocshared=12
%mem=24GB
# opt int=grid=ultrafine M06 gen pseudo=read

Title

-1 1
Ir            0.00000000000000     0.00000000000000     -0.31210000000000
O            3.60414783295579     0.11875100328337     1.59007368174845
O            -3.62699246462414     -0.03697195000862     1.56968483693816
N            2.00670000000000     -0.00000000000000     0.00000000000000
N            -2.00670000000000     -0.00000000000000     -0.00000000000000
C            -0.00700000000000     0.00000000000000     1.54610000000000
C            1.21934157962358     0.02392804093053     2.24221994990348
C            1.20437994315740     0.07502323081241     3.63835279260293
H            2.14413265428218     0.10147598722957     4.16381640808375
C            -0.00964192053229     0.10368553023120     4.32644295471273
C            -1.22366853060203     0.07668545563895     3.63068737571042
H            -2.16233615386607     0.10174257638571     4.16228554046278
C            -1.23800641600773     0.02633277089020     2.23901738488661
C            2.29208659986265     0.03789478021277     1.29063682364925
C            3.23615922614769     0.18428882188503     -0.73947356753855
H            3.36513741144276     -0.62027911019008     -1.47430778392540
C            4.31896080078154     0.11750013191679     0.36176362249022
H            4.91093912373183     -0.80221651509880     0.30430552353532
H            4.98826459790613     0.98057760949007     0.35151389571838
C            3.21005796276605     1.53426094127399     -1.49511884471973
H            4.10830285251312     1.60765703143957     -2.11128805197534
H            2.33607155338371     1.52476429042404     -2.15149545913226
C            3.12576036572129     2.69181459345278     -0.54261994564398
C            4.25418256437816     3.44571089663755     -0.24315329711222
H            5.18871970959680     3.23676450337220     -0.74734206478165
C            4.19309909663373     4.46816041816840     0.68732552825949
H            5.07939246612889     5.04473549082902     0.90980237954013
C            3.00259637384970     4.74433971930364     1.33674049461435
H            2.95765289479047     5.53489786539810     2.07124632553833
C            1.87068352388169     4.00499843340072     1.03792223356888
H            0.93730289794411     4.21294120598416     1.53890708845530
C            1.92936716182566     2.99269676029429     0.09821670256802
H            1.03900759848679     2.41122507991396     -0.12169101100425
C            -0.06874596088028     0.18277593340642     5.84921532205561
C            1.31644642637199     0.18813884491546     6.50135968138185
H            1.20678350291157     0.23809376520042     7.58327253841117
H            1.89556531050877     1.05108252957457     6.18233178751158
H            1.86500698050612     -0.71889084446982     6.26012730373233
C            -0.78647763845402     1.47852651045226     6.25444895556558
H            -0.83208764756146     1.56110542950671     7.33874692126949
H            -1.80075893370417     1.50656307197082     5.86721418545247
H            -0.24965508304254     2.34009832290105     5.86363782962877
C            -0.84057170313706     -1.02831621239249     6.39215848252068
H            -0.87298677601750     -0.99692962895575     7.47961761560956
H            -0.35135288921658     -1.95048385002149     6.08672521169097
H            -1.86142489731549     -1.04683294152843     6.02239053501435
C            -2.30768513874479     0.00002979909665     1.28544402757653
C            -4.32840165958480     -0.05510653235080     0.33233371436931
H            -4.94473870556942     0.84654477245618     0.26607916838128
H            -4.98063096274230     -0.93210611337343     0.31109403842229
C            -3.23553611401610     -0.10360821282105     -0.76026534830726
H            -3.32703800734239     0.74509038461348     -1.45010451557352
C            -3.24076328687953     -1.40881603983750     -1.57873444292039
H            -2.29185674352270     -1.45519996605579     -2.12109962874653
H            -3.27794516026771     -2.25476678780722     -0.89016170961721
C            -4.38546237870137     -1.45353005416336     -2.54606806413388
C            -4.32978210187311     -0.71957240125659     -3.72572112610494
H            -3.44643811429949     -0.13768391643418     -3.94906190872909
C            -5.38421964081804     -0.73560225030629     -4.61976619320025
H            -5.32280220144454     -0.16513026666667     -5.53508339340619
C            -6.51473090783870     -1.48670139526477     -4.34542695003764
H            -7.33797702698781     -1.50255898162792     -5.04400341075041
C            -6.58121978043532     -2.22088338565165     -3.17435944257164
H            -7.45879489384479     -2.81138660684163     -2.95571583525219
C            -5.52364445540063     -2.20372846234315     -2.28157896649112
H            -5.57981873071168     -2.78985442009337     -1.37519167512072

C O N H 0
6-31G**
******
Ir 0
SDD
******

Ir 0
SDD


