%nprocshared=12
%mem=24GB
# opt int=grid=ultrafine M06 gen pseudo=read

Title

-1 1
Ir            -0.00000000000001     -0.00009999999999     -0.30910000000005
H            -0.02640000000001     0.73460000000000     -1.74220000000000
H            0.02629999999999     -0.73489999999999     -1.74210000000000
O            3.58236123823125     0.05613012029604     1.60167089787941
O            -3.60273965208744     0.00249297337948     1.58175869671810
N            2.00669999999997     0.00000000000007     -0.00000000000004
N            -2.00670000000001     -0.00000000000001     0.00000000000005
C            -0.00699999999996     -0.00000000000001     1.54610000000000
C            1.19692248520918     0.02223983455033     2.24172973639244
C            1.20604881369556     0.07720009019807     3.63697500735215
H            2.15143106293542     0.09788068086561     4.15432384767309
C            -0.00451392950302     0.11212234062806     4.33017652852030
C            -1.21767978793803     0.09722350678341     3.63248533721696
H            -2.15924025360403     0.12802829369914     4.16096721278026
C            -1.21422034766008     0.04501957060994     2.24071094852838
C            2.28097978189884     0.02052147072843     1.28091874260343
C            3.25036624389531     0.16366662432463     -0.72843075736792
H            3.33957880601026     -0.61439065555182     -1.49280430604993
C            4.31458225797594     0.01424201960142     0.38145020077674
H            4.84155974333210     -0.94437650923647     0.32902693078206
H            5.04121737665584     0.82828483147473     0.39111357020928
C            3.28982605188669     1.54417189234791     -1.42403937337111
H            4.21801553418942     1.61557037243347     -1.99336677826688
H            2.44245838291668     1.58035203506363     -2.11004941894704
C            3.19250381726509     2.66194567155909     -0.42637719141476
C            4.32764734371827     3.33167141138103     0.01441251775565
H            5.29203628112322     3.09643275846963     -0.41645858459630
C            4.23740989390521     4.30926651299410     0.99043554588054
H            5.12949186622165     4.81997349397729     1.32340206456220
C            3.00919172886453     4.62781364693521     1.54242670016239
H            2.93969119108985     5.38359806541466     2.31110789578955
C            1.86947945246442     3.97903317243559     1.09729880563422
H            0.90559804865085     4.23027315954520     1.51588401640325
C            1.96001380823715     3.01025134692286     0.11525031124989
H            1.06552692814457     2.50924283319624     -0.23781162821148
C            -0.05645350387894     0.16557217243178     5.85281377226407
C            1.33287723644069     0.20575293203134     6.49543336284775
H            1.22877623255466     0.24550499703256     7.57823774651783
H            1.88616118658165     1.08744931292235     6.17914733800769
H            1.90736466570267     -0.68403888739617     6.24745660061250
C            -0.81509026183111     1.42706051797051     6.28989939306878
H            -0.84542608366824     1.48839166923953     7.37602351827134
H            -1.83787484931301     1.42578035258365     5.92299855016302
H            -0.31706707762935     2.31644975561188     5.90815604672473
C            -0.78350469725831     -1.08413429744171     6.37023216851545
H            -0.82041947065375     -1.07402588355515     7.45782581288200
H            -0.25906894745370     -1.98311974927277     6.05143012924047
H            -1.80265158286095     -1.13455265201837     5.99626039624067
C            -2.29525392223157     0.01958110627976     1.27656942547337
C            -4.32314322661175     -0.00848224813201     0.35210732368742
H            -4.90261739010092     0.91688898164028     0.28288515746041
H            -5.00972104471808     -0.85843242078488     0.35712269779972
C            -3.24430802563721     -0.12117213531277     -0.74896817967550
H            -3.31590264514209     0.69376166186396     -1.47643310227048
C            -3.27711910478244     -1.46494460667340     -1.49719597291073
H            -2.33167544610477     -1.54794750279222     -2.03834099774428
H            -3.32581240057465     -2.27619000553355     -0.76847348232850
C            -4.43069045827820     -1.54071864108203     -2.45243681749065
C            -4.40611835296319     -0.79895426800220     -3.62845494671214
H            -3.54269466049864     -0.18806505233672     -3.84880096454504
C            -5.46493062002417     -0.84970208640798     -4.51573664657028
H            -5.43119881823941     -0.27164395363031     -5.42760025988480
C            -6.56515566167273     -1.64538499401964     -4.24081266615123
H            -7.39029503419562     -1.68975567814421     -4.93607910158393
C            -6.59817039636739     -2.38930959797312     -3.07487606664919
H            -7.44989617762210     -3.01722922191222     -2.85735686166222
C            -5.53775186969529     -2.33477361461369     -2.18623848712476
H            -5.56742280781853     -2.92827557090889     -1.28294656536992

C O N H 0
6-31G**
******
Ir 0
SDD
******

Ir 0
SDD


