%nprocshared=12
%mem=24GB
%chk=TS-1olefin-disso
# opt=(modredundant) int=grid=ultrafine M06 gen pseudo=read

Title

-1 1
Ir            -0.00410000000000     -0.00800000000001     -0.29060000000000
C            -0.06270000000007     0.40949999999999     -3.03609999999998
C            -0.55669999999989     -0.68530000000011     -3.62760000000005
H            -1.48990000000000     -0.59790000000002     -4.19479999999999
H            0.90840000000004     0.39159999999998     -2.53220000000002
C            0.10319999999988     -2.02020000000005     -3.67119999999997
H            0.90409999999997     -2.05869999999999     -2.92279999999996
H            -0.61710000000002     -2.80580000000001     -3.39269999999998
C            0.68210000000016     -2.33360000000022     -5.04959999999998
H            1.38720000000004     -1.53490000000011     -5.33199999999999
H            -0.11500000000005     -2.31610000000003     -5.81039999999993
C            1.39620000000003     -3.67630000000005     -5.07899999999983
H            0.68959999999994     -4.46879999999999     -4.78920000000000
H            2.18000000000001     -3.67720000000006     -4.30459999999994
H            -0.06590000000001     1.67850000000000     -0.25540000000000
H            0.04209999999997     -1.69950000000001     -0.34359999999999
C            2.00209999999997     -3.98779999999982     -6.43649999999986
H            2.51549999999998     -4.95510000000007     -6.44430000000001
H            1.22990000000008     -4.01479999999989     -7.21559999999993
H            2.73149999999994     -3.22130000000009     -6.72699999999996
H            -0.55459999999999     1.37559999999996     -3.11280000000000
O            3.59967546374544     -0.07765052092813     1.59262756236760
O            -3.62515159089160     -0.06644310269630     1.55979041093637
N            2.00669999999993     -0.00000000000014     -0.00000000000006
N            -2.00670000000002     -0.00000000000003     -0.00000000000006
C            -0.00700000000003     -0.00000000000002     1.54610000000003
C            1.21612469530824     -0.00493967491357     2.23716014404053
C            1.19614638219626     0.03843181587405     3.63274407499479
H            2.13640538276248     0.04413491323171     4.15867419367799
C            -0.01721531937537     0.08395748742111     4.32070969831093
C            -1.22764791809450     0.07321576806130     3.61822782806865
H            -2.16957478809231     0.09859276251808     4.14415136993001
C            -1.23915794829907     0.03308477579160     2.22911033258927
C            2.29285828343564     -0.02447996711783     1.28713468599606
C            3.26045653374273     0.16694329493503     -0.71909812032427
H            3.30750134590531     -0.51793390762089     -1.57277394381110
C            4.30383450690013     -0.18721030256612     0.35923609978887
H            4.66710291448688     -1.21661180803258     0.25908836930133
H            5.15004752719659     0.50043935897020     0.38342598101572
C            3.41285791343770     1.62388517168051     -1.22774719483826
H            4.23551743553479     1.64952041815369     -1.94596894984829
H            2.49040154702917     1.90022689164572     -1.74099931745692
C            3.67417575269454     2.59779680660602     -0.11168335579058
C            4.95566844187714     3.08783285077656     0.11317607067651
H            5.76475310055614     2.79712698091114     -0.54449539320593
C            5.20630200588276     3.95856110190161     1.15925737320844
H            6.20650517040168     4.33632156891625     1.31547953519165
C            4.17875415318314     4.34358452306390     2.00260684867442
H            4.37433926598035     5.01973389932353     2.82207319075284
C            2.89841353653814     3.86577834220717     1.78294646321320
H            2.08812152601768     4.16564994706886     2.43117085203461
C            2.64551867927904     3.00620155932558     0.72930727580353
H            1.64113930877080     2.65425977569167     0.55593572270762
C            -0.08427942618446     0.14260843005005     5.84353648147806
C            1.29845249428279     0.21374712258828     6.49634716264562
H            1.18469112277866     0.27620974693407     7.57691086274072
H            1.84176791623637     1.09456001901274     6.16331628394543
H            1.88431744676336     -0.67394625839451     6.27198100018209
C            -0.87114579799467     1.39110331679112     6.26879654165351
H            -0.89366780332010     1.46755277086183     7.35404958414969
H            -1.89611215091064     1.35865134452320     5.91160415034929
H            -0.39938111483444     2.28575417521839     5.86890600505590
C            -0.79377492137510     -1.11723833358440     6.35996947292675
H            -0.84950430882360     -1.09825078975662     7.44650702435516
H            -0.24593345408691     -2.00660232733087     6.05680513533888
H            -1.80402335390992     -1.19096052011050     5.96769242855863
C            -2.31277808919299     0.00136144638371     1.27574368028003
C            -4.32195600380177     -0.10393426111530     0.31543731539451
H            -4.90383148158455     0.81782562724724     0.21608859679094
H            -5.00273881320300     -0.95875412610511     0.32056762116670
C            -3.22298702259183     -0.22893629543252     -0.76249340642842
H            -3.32937971735879     0.52839556603529     -1.54566808307623
C            -3.16039257646868     -1.63177909117151     -1.39141702704894
H            -2.21703374400442     -1.68909710920155     -1.93897830943126
H            -3.11484142413948     -2.36678947439562     -0.58491141906009
C            -4.30235532452288     -1.93849901855307     -2.31381896234910
C            -4.50021975101348     -1.19594694043320     -3.47286535324300
H            -3.83773781465386     -0.37234371385641     -3.69728983489459
C            -5.52683553951577     -1.50594561101714     -4.34552168118966
H            -5.66281632724220     -0.92341055997361     -5.24524467622737
C            -6.37324501500548     -2.56819804336339     -4.07445798269835
H            -7.16944282334696     -2.81659535075710     -4.76041173380468
C            -6.18835096694124     -3.31256145111623     -2.92297877828255
H            -6.84179721788045     -4.14495932470190     -2.70585098584073
C            -5.16198498631549     -2.99700268306859     -2.04929206689008
H            -5.01816222226134     -3.59019273731430     -1.15705777103414

B 1 2 F
B 1 3 F
B 2 3 F

C O N H 0
6-31G**
******
Ir 0
SDD
******

Ir 0
SDD

--Link1--
%nprocshared=12
%mem=24GB
%oldchk=TS-1olefin-disso
# opt(ts,readfc,nofreeze,noeigentest) guess=read geom=allchk freq int=grid=ultrafine M06 gen pseudo=read

C O N H 0
6-31G**
******
Ir 0
SDD
******

Ir 0
SDD


