%nprocshared=12
%mem=24GB
%chk=TS-BHT-1-2
# opt=(modredundant) int=grid=ultrafine M06 gen pseudo=read

Title

-1 1
Ir            -0.01029999999970     -0.12270000000004     -0.41600000000003
C            0.01179999999977     -0.03450000000018     -2.61919999999995
C            -0.28319999999964     -1.41750000000021     -2.36560000000005
H            -1.34689999999975     -1.66199999999998     -2.41570000000001
C            0.55789999999952     -2.51269999999990     -2.99189999999968
C            0.23590000000007     -3.93200000000019     -2.53910000000047
H            1.62100000000066     -2.28999999999997     -2.85739999999994
H            0.37859999999977     -2.43799999999996     -4.07760000000027
H            1.07689999999992     -4.59959999999997     -2.78100000000009
H            0.14310000000007     -3.95750000000005     -1.43979999999987
H            -0.09140000000002     -1.84430000000000     -0.87199999999999
H            -0.02800000000002     1.48720000000006     -0.22770000000001
H            0.98120000000028     0.19449999999988     -3.06680000000006
H            -0.79029999999967     0.59320000000014     -3.00619999999994
C            -1.03340000000040     -4.49670000000066     -3.16720000000016
H            -1.86110000000040     -3.78100000000005     -3.04679999999999
H            -0.88159999999977     -4.59500000000001     -4.25280000000032
C            -1.43050000000054     -5.83579999999977     -2.57040000000028
H            -2.32120000000013     -6.25389999999993     -3.05159999999993
H            -0.62050000000029     -6.56910000000008     -2.67320000000002
H            -1.64560000000000     -5.73680000000010     -1.49820000000010
O            3.59113495522366     0.14159622189080     1.59478134037522
O            -3.58585990404805     0.39733649998138     1.55934207959509
N            2.00670000000028     -0.00000000000003     -0.00000000000011
N            -2.00669999999987     -0.00000000000000     -0.00000000000023
C            -0.00700000000028     0.00000000000000     1.54610000000018
C            1.21220770458950     0.04547022467701     2.23679071721492
C            1.21005560766985     0.11989606124134     3.62833919688107
H            2.15458088411415     0.12760312802575     4.14650981189933
C            0.00083629840846     0.17335873162427     4.32384510977781
C            -1.20870233991810     0.22828107777519     3.62328634389606
H            -2.14666853923815     0.30816510317523     4.15138631353044
C            -1.22022779825283     0.15416309320325     2.23331407975923
C            2.28750282840738     0.04460286997854     1.28601274910565
C            3.23481865896114     0.32571275970370     -0.71363356655470
H            3.36644095501695     -0.33549060857149     -1.57524427140842
C            4.31005963583329     0.10106558587053     0.36511218207178
H            4.79010901609460     -0.88086256041962     0.27673631421012
H            5.07182540017250     0.88108637134760     0.38530436731042
C            3.19745695173720     1.79576546530935     -1.20900347231207
H            3.97824612619229     1.92106888664329     -1.96206822610710
H            2.22391130380754     1.95313151738975     -1.67496232861874
C            3.39939825661995     2.79240744253406     -0.10041553695988
C            4.62681938359615     3.42579508882979     0.06420320615588
H            5.42999471098760     3.22862126180219     -0.63386958103980
C            4.83167959378627     4.31926248831124     1.10133562040614
H            5.79010821684956     4.80645229614905     1.20905365637435
C            3.81317162047415     4.58662455609744     1.99950314948532
H            3.97334455693340     5.27948213966303     2.81278112665358
C            2.58529872883777     3.96826406504509     1.84082526650051
H            1.77950324183533     4.17501352933555     2.53013223162980
C            2.37819260365077     3.08635095458297     0.79583457092845
H            1.41101886978713     2.62726839032301     0.66982413715608
C            -0.04672460827598     0.11527221436842     5.84738875633982
C            1.34179912859731     0.19630469350531     6.48831268569948
H            1.24162361003648     0.17520351390992     7.57195253174520
H            1.84499765943095     1.12021649307182     6.21316024198118
H            1.96098045121905     -0.64817619250022     6.19576040164682
C            -0.88999657881086     1.26945846101888     6.40485401174010
H            -0.87710047948406     1.24724511432661     7.49283251343666
H            -1.92469820574199     1.20403607456130     6.08190457111730
H            -0.48685984504998     2.22382667837728     6.07397212705493
C            -0.67960422848345     -1.22720558742822     6.24537102972690
H            -0.72401239370484     -1.31833097626877     7.32884124090846
H            -0.08712165740733     -2.05146357364427     5.85333636165831
H            -1.68811524085403     -1.31698163363027     5.85047268907603
C            -2.28685171679018     0.17760915047456     1.27554673851065
C            -4.25855723272327     0.51705714858932     0.30861981941258
H            -4.42630380132804     1.58082801942969     0.10362372356133
H            -5.21857763677540     0.00347670594469     0.37089479678110
C            -3.28569599393397     -0.12259550455809     -0.69592045050913
H            -3.26238558038016     0.40883071421574     -1.64937447379260
C            -3.62346093584739     -1.61678396311316     -0.90780259499564
H            -2.69112252324400     -2.16154136768760     -1.06780044519890
H            -4.05906710117285     -2.01029687515718     0.01366574075187
C            -4.54482763485470     -1.86689899553640     -2.06673114890325
C            -4.17508176297674     -1.50114796557507     -3.35694231403677
H            -3.22645785961920     -1.01224921025090     -3.52736420587174
C            -5.00468873021002     -1.76450147713955     -4.43097392477792
H            -4.70073617605086     -1.47713895021131     -5.42686891630899
C            -6.21785615890527     -2.40214908250003     -4.23307784697783
H            -6.86201351659299     -2.61462540166462     -5.07325366041555
C            -6.59658534218167     -2.76905526029849     -2.95403336577998
H            -7.53988724147222     -3.26940467619229     -2.79115796049350
C            -5.76608391311327     -2.50045994811237     -1.87965457616960
H            -6.06601149265307     -2.79728179725299     -0.88434371600321

B 1 2 F
B 2 3 F
B 3 11 F
B 11 1 F

C O N H 0
6-31G**
******
Ir 0
SDD
******

Ir 0
SDD

--Link1--
%nprocshared=12
%mem=24GB
%oldchk=TS-BHT-1-2
# opt(ts,readfc,nofreeze,noeigentest) guess=read geom=allchk freq int=grid=ultrafine M06 gen pseudo=read

C O N H 0
6-31G**
******
Ir 0
SDD
******

Ir 0
SDD


