%nprocshared=12
%mem=24GB
%chk=TS-CH-Add-1-2
# opt=(modredundant) int=grid=ultrafine M06 gen pseudo=read

Title

-1 1
Ir            -0.00039999999998     0.10810000000001     -0.34670000000003
C            0.06129999999965     0.31669999999983     -2.63969999999998
C            -0.34020000000014     -1.00750000000032     -3.27999999999997
H            -1.35050000000006     -1.28059999999998     -2.95439999999998
C            -0.31100000000000     -0.94089999999962     -4.80530000000003
C            -0.66809999999988     -2.25270000000032     -5.49310000000003
H            0.68699999999996     -0.60959999999999     -5.13359999999996
H            -1.01359999999966     -0.15630000000013     -5.13609999999984
H            -0.61210000000002     -2.11770000000002     -6.58480000000007
H            0.08609999999997     -3.01830000000041     -5.24679999999998
H            0.31269999999996     -1.82999999999997     -2.94359999999997
H            -0.01569999999999     1.30660000000000     -1.36559999999999
H            1.07159999999998     0.59119999999998     -2.97560000000000
H            -0.59139999999989     1.08330000000001     -3.09580000000006
C            -2.04980000000025     -2.78669999999966     -5.13360000000016
H            -2.06280000000010     -3.10019999999999     -4.07930000000000
H            -2.78680000000005     -1.96959999999994     -5.21300000000004
C            -2.46590000000012     -3.95379999999915     -6.01319999999998
H            -3.44770000000021     -4.35189999999992     -5.73439999999996
H            -2.51370000000003     -3.65550000000007     -7.06819999999992
H            -1.74159999999982     -4.77529999999994     -5.94040000000004
O            3.57885437334720     -0.20185763454886     1.59953018318020
O            -3.60177178159959     0.06763249570674     1.59255937562206
N            2.00670000000004     -0.00000000000005     0.00000000000003
N            -2.00669999999996     -0.00000000000006     0.00000000000069
C            -0.00699999999980     0.00000000000003     1.54609999999998
C            1.20241535767554     -0.05992175224339     2.24311081389590
C            1.20328528597395     -0.03196549551316     3.63852426292892
H            2.14497779786448     -0.07252847044139     4.16107273939264
C            -0.00478751031398     0.07300355830591     4.33001901766946
C            -1.21701964101897     0.10650649778453     3.63207697669363
H            -2.15594479471609     0.17655394710654     4.16073988907984
C            -1.21938429839423     0.06375156805015     2.24193009237963
C            2.27777752558620     -0.09405293826464     1.28516431265331
C            3.26684868501643     0.17184487289661     -0.69730410353839
H            3.31233062543810     -0.47525470499467     -1.57845663068221
C            4.30172231163255     -0.22915550745042     0.37436156266514
H            4.68752764184862     -1.24376704790682     0.22147317318006
H            5.13605225039740     0.46907933950039     0.45140883335044
C            3.43596214199935     1.64424320523214     -1.14781458549964
H            4.36675283066161     1.72331584482585     -1.71287822130717
H            2.60006582602386     1.88759369005657     -1.80373893934395
C            3.45162025791480     2.58434412308096     0.02401770368784
C            4.64826778197944     3.09625636747728     0.51149252080774
H            5.57788184421113     2.86237279418670     0.00919023132743
C            4.66482590880582     3.91616563608392     1.62637422302514
H            5.60352040933773     4.30773094719831     1.99122865323332
C            3.48319456349871     4.22972068310724     2.27486331895886
H            3.49685825755043     4.86211736389525     3.15052422160378
C            2.28470417147248     3.73484995429074     1.78975268533446
H            1.35605460906765     3.97722951063709     2.28476133722174
C            2.26724196074942     2.92682178927927     0.66778170614410
H            1.32454074333908     2.54543324167469     0.29392646804709
C            -0.05943248272631     0.17764786457763     5.85045669515356
C            1.32614081030918     0.14380399345869     6.50059515716421
H            1.22086188119238     0.23040463243503     7.58062202631019
H            1.94005635916101     0.97241083571700     6.15531414600193
H            1.83720791730089     -0.79211067366171     6.28729759776295
C            -0.72621433756148     1.50819868728652     6.23081419142749
H            -0.75644080973125     1.61817513625626     7.31317731775396
H            -1.74409249325803     1.56475725295607     5.85536982721793
H            -0.16359899549150     2.34114998794826     5.81410161287490
C            -0.87829501373728     -0.99210451378204     6.41442262811275
H            -0.91874621994211     -0.93327892847496     7.50041241747672
H            -0.42042298403719     -1.93934024854077     6.13670871229176
H            -1.89677704498090     -0.98298345338496     6.03638370728350
C            -2.29178966643877     0.05153383167409     1.28364866197753
C            -4.31256955077887     0.15058204683424     0.36142954368267
H            -4.69227768635931     1.17247843783604     0.24719408406638
H            -5.15247825473175     -0.54543086230957     0.38698291655710
C            -3.26269425624392     -0.21014317027254     -0.70553577201945
H            -3.32225148781123     0.43451189424411     -1.58408959400776
C            -3.38094852350043     -1.69207351017622     -1.10638513984704
H            -2.43167521710000     -1.99680429839602     -1.55320739015202
H            -3.51385578253887     -2.28627381692725     -0.19863759336985
C            -4.49912677500107     -1.96181535246573     -2.07093602442194
C            -4.57680379677775     -1.27946385560851     -3.27994532856346
H            -3.83499308292693     -0.53216064911003     -3.52086333471701
C            -5.58569355416272     -1.55617540347666     -4.18385576082813
H            -5.62873973948612     -1.02147999709737     -5.12159180028410
C            -6.53466593904080     -2.52182827417702     -3.89412815180802
H            -7.31855242890857     -2.74287613972826     -4.60313554224348
C            -6.47026425666237     -3.20361451943126     -2.69202132165451
H            -7.20586378361421     -3.95922844715615     -2.45781719983471
C            -5.46094131125426     -2.92263315353782     -1.78752901072788
H            -5.41468826860748     -3.46520992900712     -0.85347729833060

B 1 12 F
B 1 2 F
B 2 12 F

C O N H 0
6-31G**
******
Ir 0
SDD
******

Ir 0
SDD

--Link1--
%nprocshared=12
%mem=24GB
%oldchk=TS-CH-Add-1-2
# opt(ts,readfc,nofreeze,noeigentest) guess=read geom=allchk freq int=grid=ultrafine M06 gen pseudo=read

C O N H 0
6-31G**
******
Ir 0
SDD
******

Ir 0
SDD


