%nprocshared=12
%mem=24GB
# opt int=grid=ultrafine M06 gen pseudo=read

Title

-1 1
Ir            -0.01039999999970     -0.11319999999972     -0.40739999999903
C            0.06620000000061     0.48599999999981     -2.55360000000065
C            -0.31960000000430     -0.86340000000050     -2.54699999999962
H            -1.39010000000024     -1.06659999999994     -2.62169999999984
C            0.52179999999934     -1.93680000000283     -3.19220000000016
C            0.14449999999988     -3.37679999999870     -2.86289999999783
H            1.57969999999825     -1.76079999999982     -2.97629999999965
H            0.42399999999968     -1.80529999999882     -4.28519999999811
H            0.98629999999836     -4.04320000000027     -3.10939999999985
H            -0.01139999999961     -3.47389999999991     -1.77579999999919
H            0.05020000000001     -1.77280000000015     -0.14759999999991
H            -0.06350000000001     1.54969999999982     -0.26860000000004
H            1.07649999999770     0.73779999999862     -2.88099999999989
H            -0.65899999999907     1.27470000000221     -2.73999999999989
C            -1.09019999999924     -3.86790000000102     -3.60890000000174
H            -1.92519999999725     -3.16839999999979     -3.45260000000017
H            -0.88499999999853     -3.84909999999995     -4.69020000000047
C            -1.50759999999217     -5.26500000000062     -3.18280000000318
H            -2.38169999999961     -5.62260000000102     -3.73799999999815
H            -0.69380000000374     -5.98409999999936     -3.34259999999934
H            -1.75699999999930     -5.28949999999975     -2.11390000000128
P            2.11429999999968     0.00000000000015     -0.00000000000030
O            2.26587085276709     -0.17318955625776     1.62949175301283
N            -2.11429999999951     0.00000000000066     -0.00000000000106
N            -3.74744199716270     0.25337431382004     1.50644753388939
C            3.36666683863182     -1.20060612341318     -0.54786197856331
C            4.05327884520356     -0.94974386928195     -1.73096435663453
H            3.88192517073399     -0.01764374042928     -2.25498171089494
C            4.95611289686469     -1.87490959821294     -2.21932562877597
H            5.49507408072907     -1.67426098785310     -3.13423045654297
C            5.17003855796301     -3.05945602336812     -1.53192002323968
H            5.88059163645878     -3.78001847842941     -1.90997113884502
C            4.47184403991306     -3.32108795627819     -0.36419833535017
H            4.63663810132294     -4.24836103709036     0.16532901756050
C            3.56265035420722     -2.39919774960611     0.12292918153768
H            3.00418552914274     -2.59325172901966     1.02698353547853
C            3.09661259575634     1.54361405701100     -0.19660173175020
C            2.62125499786243     2.64385979990236     -0.89231504979470
H            1.64781786968903     2.59591243383672     -1.35516443237733
C            3.38047336760170     3.79890553063232     -0.97241781256427
H            3.00483392069657     4.65327995403576     -1.51724818639349
C            4.61497570469554     3.86192860591057     -0.34953518867272
H            5.20386638042068     4.76609586027120     -0.40629575009356
C            5.09185807469980     2.76605901105826     0.35306372535790
H            6.05281410235991     2.81703552325225     0.84461631353875
C            4.33839665602761     1.60959240487811     0.42672373838770
H            4.70010754497019     0.74962052002407     0.97372769882224
C            -0.09169999999990     -0.00000000000089     1.60619999999911
C            1.08701259097489     -0.06547081972748     2.34333267122940
C            1.04674975105548     -0.04409851720476     3.72202705194245
H            1.95612268987191     -0.10072139911889     4.30085250533640
C            -0.19623613887663     0.03912595332617     4.35180077018941
H            -0.23258633162661     0.03337083200123     5.43102867661607
C            -1.37402649375244     0.12930119475166     3.63808993376909
H            -2.31402745612246     0.17755262646841     4.16555233386559
C            -1.32978896032301     0.13524905457177     2.23865068636301
C            -2.40983720372469     0.16977001211123     1.27095711911483
C            -4.44365039212547     0.21391093237014     0.22950277040666
H            -4.77907078717551     1.22393372126811     -0.04304281903572
H            -5.31606487388147     -0.43805722987746     0.26725129250045
C            -3.34891718504454     -0.30499115253971     -0.71320089553144
H            -3.36767462979921     0.20719691266525     -1.68098184566932
C            -3.45533064593664     -1.83348419241846     -0.95759860960294
H            -2.52178174064220     -2.14198467144565     -1.43153140066755
C            -3.56178549849957     -2.64051723528789     0.33370357122483
H            -2.71995602000357     -2.42127762191767     0.98640933629290
H            -3.53609239515127     -3.70233397265076     0.09683995912560
H            -4.48587290779253     -2.44002478044809     0.87073873623740
C            -4.60917931263903     -2.15319818945689     -1.90467719725762
H            -4.60967432846783     -3.21456331980253     -2.14265158842393
H            -4.51468905216492     -1.59505355329259     -2.83434156794159
H            -5.56987700596548     -1.90753948683643     -1.45639413552411
C            -4.41341808969362     0.67062905788413     2.66701495690354
C            -4.00471108370031     1.79907927983028     3.37319728740066
H            -3.14778654657048     2.35804109445455     3.02802916807408
C            -4.68623618088072     2.18758510400254     4.50976677209902
H            -4.35712179944516     3.06134928030493     5.05332973208483
C            -5.79322068761487     1.47769993510161     4.96320851276750
C            -6.20526175704466     0.36529508833200     4.24127126020304
H            -7.06279333839100     -0.20087736533054     4.57565394001614
C            -5.52831344969852     -0.03632913089459     3.10581528175996
H            -5.85488333996806     -0.91358122317858     2.56776563415174
C            -6.53153841603271     1.91807273383735     6.18978767786335
H            -7.16299909181782     1.11939394472590     6.57096383517706
H            -7.16656329240971     2.77350659047404     5.95790756214543
H            -5.83639937525078     2.22101011238336     6.96996857291352

C P O N H 0
6-31G**
******
Ir 0
SDD
******

Ir 0
SDD


