%nprocshared=12
%mem=24GB
# opt int=grid=ultrafine M06 gen pseudo=read

Title

-1 1
Ir            0.00609999999986     -0.03989999999998     -0.35489999999977
C            0.05869999999879     0.31169999999973     -2.53019999999986
C            -0.56840000000065     -0.60590000000078     -3.57979999999954
H            -0.55739999999996     -0.09390000000003     -4.55880000000001
C            0.11169999999738     -1.95669999999939     -3.74730000000022
C            -0.53709999999978     -2.86500000000062     -4.78519999999984
H            0.11469999999997     -2.47690000000001     -2.77490000000120
H            1.17450000000096     -1.80310000000000     -4.00750000000020
H            -0.06039999999929     -3.85750000000014     -4.75080000000016
H            -1.59389999999989     -3.03160000000049     -4.51290000000032
H            -1.63220000000144     -0.79370000000011     -3.36099999999977
H            0.00490000000000     -1.41500000000001     -1.06209999999999
H            1.10519999999934     0.46699999999968     -2.83879999999983
H            -0.41150000000032     1.30759999999966     -2.63099999999992
C            -0.46969999999468     -2.34560000000202     -6.21560000000018
H            -1.02540000000064     -1.40079999999891     -6.29680000000000
H            0.57610000000033     -2.10150000000088     -6.46039999999982
C            -1.01839999999420     -3.34660000000006     -7.21879999999833
H            -0.97750000000063     -2.96710000000024     -8.24570000000045
H            -0.45259999999785     -4.28669999999965     -7.18800000000007
H            -2.06529999999817     -3.59079999999942     -6.99639999999890
P            2.11430000000050     -0.00000000000002     -0.00000000000091
O            2.27929373319685     -0.13078341837404     1.64634703370057
N            -2.11429999999996     -0.00000000000046     0.00000000000175
N            -3.74532827121995     0.23879400975983     1.49982011504650
C            3.34354994718255     -1.22741543299682     -0.53435315097880
C            3.90639472608344     -1.08826743388373     -1.79848927567225
H            3.64235176853153     -0.23005353344747     -2.40125693464112
C            4.79604527883421     -2.03437513335664     -2.26963748637309
H            5.23653359968864     -1.92264871756138     -3.24980654738008
C            5.12329339737798     -3.12856190808843     -1.48355523449701
H            5.82089414070165     -3.86709099787974     -1.85090828595729
C            4.55253186024059     -3.27818286989090     -0.23073891388384
H            4.80334487504600     -4.13556903122697     0.37739683002093
C            3.65674763104731     -2.33491004050597     0.24142576703099
H            3.20180085992237     -2.44599809566350     1.21443670316952
C            3.04768389837885     1.55477474918109     -0.24758905529849
C            2.38616414537629     2.66917806328455     -0.74313082635197
H            1.34879385066838     2.57719355348798     -1.03932943556373
C            3.05207822069652     3.87611209236364     -0.86553605222728
H            2.53778532357092     4.74267189543280     -1.25541478082643
C            4.38022954514597     3.97183894460586     -0.48484500320505
H            4.90135348635374     4.91339647247751     -0.57894278940699
C            5.04153892439894     2.86237640500622     0.01973661673246
H            6.07637938856272     2.94206844395373     0.32010956277848
C            4.37845097450904     1.65510133289694     0.13982625639367
H            4.88068657597448     0.78417534136745     0.53701129246070
C            -0.09169999999966     0.00000000000046     1.60620000000133
C            1.08386143416800     -0.05193088595937     2.35226214349441
C            1.04415759270642     -0.03528963362631     3.73295328183761
H            1.95196630980388     -0.07536440318816     4.31684327270109
C            -0.20128947761251     0.01623339137528     4.35770822140151
H            -0.24210501188536     0.00067252201854     5.43729284764437
C            -1.38302356239896     0.08696376531004     3.64152857949996
H            -2.32297607297812     0.10914885104629     4.17254592271152
C            -1.32799990637853     0.10716765454313     2.24627383151665
C            -2.41058479386691     0.14976172966871     1.26845028973243
C            -4.45022534277615     0.18869621941123     0.22678060539890
H            -4.88583011004251     1.17170558955910     0.00554375106828
H            -5.25835001859184     -0.54322924144198     0.25085294448334
C            -3.33290189855356     -0.19132899633121     -0.76211030410047
H            -3.32658974368061     0.46427423296099     -1.63957389095965
C            -3.41131578007206     -1.65199649503068     -1.26030859648707
H            -2.46916981295277     -1.83634369175005     -1.78294504939805
C            -3.49120398057887     -2.65739703194665     -0.11505429430682
H            -2.66194560328274     -2.50676302031448     0.57202077955189
H            -3.42087729782499     -3.66705411881063     -0.51190285928353
H            -4.42675968656808     -2.57818208237632     0.43470191812421
C            -4.56665575980505     -1.82759004997438     -2.24146383147257
H            -4.58119101536612     -2.84645150903372     -2.62057380169329
H            -4.45883683659998     -1.15044406090080     -3.08606800235768
H            -5.52541950731019     -1.62980074148134     -1.76557726531816
C            -4.41003063467295     0.64766046716124     2.66367386091393
C            -3.98667284169239     1.76413675348314     3.38133873512385
H            -3.12267185285055     2.31805455012271     3.04442594284652
C            -4.66122135147817     2.15146455619885     4.52164955284850
H            -4.31813028421028     3.01393464253561     5.07479172253208
C            -5.78005145566066     1.45460373574915     4.96661932908553
C            -6.20953979443704     0.35812488177703     4.23131755126258
H            -7.07827578588714     -0.19612337493125     4.55629614590740
C            -5.53755849756837     -0.04406557771456     3.09249674087836
H            -5.87844228291528     -0.90875147883046     2.54331588231158
C            -6.49355307961743     1.88537138696099     6.21108790684308
H            -7.36831136106852     1.26640407271359     6.39291444439892
H            -6.81140609599633     2.92383560761994     6.12839657064917
H            -5.83018935582564     1.80932661596573     7.07212794737440

C P O N H 0
6-31G**
******
Ir 0
SDD
******

Ir 0
SDD

