%nprocshared=12
%mem=24GB
# opt int=grid=ultrafine M06 gen pseudo=read

Title

-1 1
Ir            0.00000000000001     0.00000000000000     -0.31210000000001
P            2.11430000000012     0.00000000000040     0.00000000000003
O            2.28949179952785     -0.06698852011732     1.65347279409509
N            -2.11429999999998     0.00000000000006     0.00000000000003
N            -3.76351015204515     0.03079333917416     1.51757254418372
C            3.24976664914609     -1.34631788929119     -0.50157928251867
C            2.76354519438459     -2.33925427598851     -1.34017857403126
H            1.72346585634221     -2.30448134743650     -1.64093165671479
C            3.59563955525549     -3.35134373887116     -1.78377550512380
H            3.21659014074772     -4.11802156861562     -2.44450341047219
C            4.92034251916707     -3.37658397551783     -1.37967971168220
H            5.57479877360379     -4.16254758193204     -1.72791649323252
C            5.40759262598478     -2.39578953830304     -0.52885434874850
H            6.44073690212947     -2.42295444830794     -0.21328552571615
C            4.57717724450058     -1.38010589618595     -0.09238976619947
H            4.94455268870548     -0.60542475851124     0.56537851422714
C            3.19941039288766     1.42456076770980     -0.36610947628397
C            3.80018444801927     1.50901423297107     -1.61842797358948
H            3.70797341530342     0.67777932993154     -2.30679657320308
C            4.52038902955899     2.63319063747006     -1.97435265903738
H            4.99197098736806     2.68909847413881     -2.94557051061731
C            4.63730398565010     3.69008496374096     -1.08508453832370
H            5.20167986129966     4.56843640137327     -1.36274590507901
C            4.02522787105546     3.62054608577302     0.15595981037483
H            4.11252702375541     4.44690028831110     0.84622786232985
C            3.29930373568040     2.49784281472299     0.51053878338528
H            2.81237759058353     2.43620263558748     1.47250831334381
C            -0.09169999999930     -0.00000000000010     1.60620000000021
C            1.09697105229935     -0.09556239942040     2.35622321580199
C            1.04541132152447     -0.23083909991324     3.72400708960344
H            1.95097517912792     -0.30413715148181     4.30681228545630
C            -0.20744945917491     -0.30464065583240     4.34558690778713
H            -0.24542741302951     -0.44272866352158     5.41575960512955
C            -1.38611995335052     -0.22222169147813     3.63493309040480
H            -2.32609497389313     -0.31863496345900     4.15633978112470
C            -1.34503535117589     -0.04000993363125     2.24698247838447
C            -2.41984934033255     0.02887847967745     1.27951478866588
C            -4.46695819143100     -0.11876294241210     0.25349132144490
H            -5.19203902836765     0.68963253505859     0.12258802617224
H            -5.00266559167879     -1.07243651453789     0.22327741328395
C            -3.32700042892419     -0.06431956188638     -0.78889411246700
H            -3.41153441013793     0.84826876385410     -1.39951468710998
C            -3.27325706684342     -1.26430723728917     -1.75577286114679
H            -2.40644557576568     -1.08971509169749     -2.40650159499941
C            -3.04311680192192     -2.58194707199177     -1.01911178016241
H            -2.16668943124547     -2.50478918486220     -0.37789044431913
H            -2.88205171094610     -3.38548740945351     -1.73440080602119
H            -3.89870104930826     -2.84724125662848     -0.40222916534473
C            -4.52271895162756     -1.32124504321661     -2.62934259438127
H            -4.43216198871618     -2.11890153297387     -3.36326969621349
H            -4.66657917802543     -0.38161686628370     -3.15947028597084
H            -5.40922775010324     -1.51289628035675     -2.02883268337322
C            -4.41561753841255     0.43490805719444     2.68207190826330
C            -3.89655180966080     1.46330769724367     3.47015394901532
H            -2.98914010038247     1.95951402185802     3.16190907481242
C            -4.52975605935354     1.82939598928387     4.63898808073404
H            -4.10779201936368     2.61709230975910     5.24642681333212
C            -5.70456671901711     1.20544789210140     5.04835279114525
C            -6.24154172741618     0.21831501336065     4.23412413740911
H            -7.16139633716088     -0.26999119350423     4.52307925128073
C            -5.61258286896819     -0.16442649157054     3.06334403017135
H            -6.04204192996981     -0.94548768412880     2.45427731122244
C            -6.35732170156004     1.59826531604666     6.33877288984391
H            -7.28143067265347     1.04714012948986     6.49311945323346
H            -6.58060083848338     2.66435783621916     6.34608948942187
H            -5.68887821176051     1.39444247799453     7.17500023142444

C P O N H 0
6-31G**
******
Ir 0
SDD
******

Ir 0
SDD


