%nprocshared=12
%mem=24GB
# opt int=grid=ultrafine M06 gen pseudo=read

Title

-1 1
Ir            0.00000000000001     -0.00010000000003     -0.30910000000016
H            -0.02639999999999     0.73460000000000     -1.74219999999999
H            0.02629999999999     -0.73489999999999     -1.74210000000003
P            2.11430000000053     -0.00000000000004     -0.00000000000010
O            2.28794899693804     -0.09134847409181     1.65594232738408
N            -2.11430000000020     0.00000000000013     0.00000000000024
N            -3.74452223910658     0.12263110202550     1.52108226163628
C            3.32722186936142     -1.28515745807572     -0.47286600661371
C            2.96784760949783     -2.30463142164758     -1.34314030269638
H            1.95943301771868     -2.32463134697066     -1.73352455271951
C            3.89567041007037     -3.26849531474624     -1.69847739620695
H            3.61854081927034     -4.05987932304966     -2.38033248722469
C            5.17926287221438     -3.21873449355993     -1.17993506882395
H            5.90389501027415     -3.97008036293757     -1.45864642439313
C            5.53704439900327     -2.20590521795649     -0.30261789506344
H            6.53832716578902     -2.17097248291975     0.10272001151922
C            4.61505169821848     -1.23772738594912     0.04845694123763
H            4.88194193405677     -0.44070019345310     0.72918001410741
C            3.13118913545728     1.47360057718808     -0.35863674301624
C            3.53646929231207     1.66100282441529     -1.67647907613191
H            3.27384387618245     0.91360630896151     -2.41342474537414
C            4.25950621752439     2.78418603317603     -2.02691970568907
H            4.57703887075991     2.92673885071656     -3.04987274528970
C            4.57600545431611     3.73199359462848     -1.06476087768192
H            5.14150431642937     4.61098335440806     -1.33810050363489
C            4.16355642717053     3.55490668513486     0.24490765157150
H            4.40627805300114     4.29666053569090     0.99319686481506
C            3.43638712137707     2.43108193146695     0.59809022061405
H            3.11184522323939     2.29090885041427     1.61953716175733
C            -0.09170000000020     -0.00000000000031     1.60620000000029
C            1.08529129135804     -0.11743429594646     2.34524950867191
C            1.04057957598188     -0.27340977539835     3.72115209185071
H            1.94994055621114     -0.35658882626949     4.29858269636198
C            -0.20349319100606     -0.35449634932165     4.33829578646677
H            -0.24551619594161     -0.50827272844202     5.40717170319025
C            -1.38834067256943     -0.25718278635579     3.62587186526555
H            -2.33030689886928     -0.36123252223735     4.14422389400149
C            -1.32722024935027     -0.05015888849089     2.24849114745732
C            -2.41284986051622     0.05143363424381     1.27128372361770
C            -4.46605621314157     0.04879329246109     0.25932611201531
H            -5.11422888491766     0.92239902663981     0.14357955280951
H            -5.08902453875637     -0.84968351045337     0.22741587026238
C            -3.33183096769583     0.00631176798577     -0.78966051382279
H            -3.34035015649765     0.91055128777113     -1.41275310177570
C            -3.37576907871129     -1.20711492618287     -1.73808156276790
H            -2.50429237038304     -1.10187387556987     -2.39133871401749
C            -3.23372636715233     -2.52878743601166     -0.98821885487489
H            -2.30711996733308     -2.53139708027803     -0.41810368612520
H            -3.20107026768325     -3.35317432489566     -1.69606742111087
H            -4.06587302797257     -2.70104940748554     -0.30817617344408
C            -4.63901933849389     -1.18042131083213     -2.59374778228299
H            -4.61089258260719     -1.98575349325952     -3.32334777956755
H            -4.71906953649182     -0.23676597034215     -3.12833816173603
H            -5.53239152489551     -1.30663576965558     -1.98560785885902
C            -4.37564272915432     0.50919155516655     2.70794037883543
C            -3.85486653037286     1.54099730016190     3.48783008079836
H            -2.95735094435739     2.04981255978868     3.16851394961693
C            -4.47531402045057     1.90039055834718     4.66643739334021
H            -4.05404511546745     2.69335228105285     5.26750014086607
C            -5.63714240989132     1.26331000759445     5.09064447940488
C            -6.17007511223014     0.26329615350388     4.28855235165062
H            -7.07715512047081     -0.23866971769099     4.59329426997752
C            -5.55322744705236     -0.11254455602019     3.10965138942570
H            -5.97647161431115     -0.90322191007123     2.50859834230259
C            -6.29606558351929     1.66659924203002     6.37403886761015
H            -7.06314098334818     0.95136324561751     6.65989863016753
H            -6.76217803267514     2.64624818917604     6.26672058222203
H            -5.56261734829665     1.73433202621022     7.17572084940119

C P O N H 0
6-31G**
******
Ir 0
SDD
******

Ir 0
SDD


