%nprocshared=12
%mem=24GB
%chk=TS-1olefin-disso
# opt=(modredundant) int=grid=ultrafine M06 gen pseudo=read

Title

-1 1
Ir            -0.00410000000002     -0.00800000000003     -0.29059999999977
C            -0.06269999999984     0.40949999999941     -3.03609999999950
C            -0.55670000000019     -0.68529999999865     -3.62759999999982
H            -1.48990000000041     -0.59790000000011     -4.19479999999992
H            0.90840000000012     0.39159999999981     -2.53220000000005
C            0.10320000000137     -2.02020000000100     -3.67120000000015
H            0.90409999999995     -2.05870000000008     -2.92279999999969
H            -0.61710000000030     -2.80580000000002     -3.39269999999991
C            0.68209999999921     -2.33360000000070     -5.04959999999997
H            1.38720000000004     -1.53490000000016     -5.33200000000004
H            -0.11500000000057     -2.31609999999999     -5.81040000000000
C            1.39620000000069     -3.67629999999972     -5.07900000000023
H            0.68959999999906     -4.46880000000022     -4.78920000000026
H            2.18000000000033     -3.67720000000009     -4.30460000000074
H            -0.06590000000000     1.67850000000000     -0.25540000000000
H            0.04210000000001     -1.69949999999999     -0.34360000000000
C            2.00209999999857     -3.98779999999915     -6.43649999999935
H            2.51550000000051     -4.95509999999928     -6.44429999999988
H            1.22990000000036     -4.01480000000025     -7.21560000000149
H            2.73150000000013     -3.22129999999893     -6.72699999999990
H            -0.55460000000017     1.37559999999983     -3.11279999999978
P            2.11429999999973     -0.00000000000000     0.00000000000020
O            2.28401066522174     -0.09590990470800     1.63282390803097
N            -2.11429999999948     0.00000000000021     -0.00000000000017
N            -3.76672792359409     -0.00347043682300     1.50916935302789
C            3.27421651061784     -1.29462177449577     -0.54293687411711
C            3.69598833632797     -1.25296755675372     -1.86785672471761
H            3.36656607793595     -0.43960034821668     -2.50385206926705
C            4.53780020071135     -2.23039934941071     -2.36187016590539
H            4.86528152922904     -2.19460086648986     -3.39117109736282
C            4.96483190956663     -3.25484513094732     -1.53090967989051
H            5.63017009309299     -4.01549450390370     -1.91266785351905
C            4.53883515597191     -3.30414691799578     -0.21388963302495
H            4.87285920373199     -4.10459144714686     0.43048188674549
C            3.68529229528401     -2.33259431066724     0.27941352662848
H            3.33952928836885     -2.36541060340169     1.30206551678868
C            3.18396582327787     1.45747253282367     -0.34717964035520
C            2.73162021436224     2.50487772157099     -1.13545688212475
H            1.72763522088232     2.47457263889774     -1.53139245109838
C            3.54826698394255     3.59358485022486     -1.38685628902897
H            3.19012012218465     4.40515643504995     -2.00418462202750
C            4.81948904205300     3.64398172325509     -0.84155598749948
H            5.45568564253303     4.49614363165454     -1.03291754277198
C            5.27305235818566     2.60364913890333     -0.04510823904924
H            6.26309010348839     2.64828295500409     0.38579107957082
C            4.46205863604019     1.51018420503232     0.19675025015403
H            4.80622984573117     0.69190196500184     0.81418490139239
C            -0.09170000000028     0.00000000000001     1.60619999999975
C            1.09598968469437     -0.04400904538724     2.34596338810661
C            1.05014253519588     -0.05134591284294     3.72145490033281
H            1.96055482426844     -0.07790224225563     4.30075346515132
C            -0.19785837985499     -0.03382613932947     4.35318775415150
H            -0.23189315397472     -0.05695646694391     5.43183374980687
C            -1.37839435665440     0.00957683419029     3.64144974499702
H            -2.31905221989941     0.00252499384615     4.17004093358876
C            -1.34299560784079     0.05138732738331     2.24170967866062
C            -2.42477438282331     0.05931306331826     1.27593615945488
C            -4.45801435469254     -0.08954765931232     0.23028686408132
H            -5.01134932367862     0.83836386650546     0.04014487946023
H            -5.16781374323606     -0.91851984868358     0.22421810433600
C            -3.30653596628053     -0.29272950672029     -0.77379155747261
H            -3.38174437222963     0.40213515150889     -1.61925887986524
C            -3.21944508697372     -1.72876458978959     -1.34181973102448
H            -2.27892637893154     -1.76719909877009     -1.89966769355579
C            -3.14224125871402     -2.78526486792407     -0.24301761723335
H            -2.30297760242925     -2.57740157035311     0.41537171290058
H            -2.98679945531046     -3.76564872716411     -0.68777218437776
H            -4.05341553782655     -2.82469276054030     0.34948418131507
C            -4.37153046040437     -2.01210045949874     -2.30124931383356
H            -4.24995348089650     -2.99703510468522     -2.74636945836417
H            -4.40088608850697     -1.27531650131056     -3.10122398386981
H            -5.32870707112818     -1.99294285205881     -1.78407283475618
C            -4.45548565142240     0.42164052804490     2.65263387286604
C            -4.06718738089944     1.56569758889563     3.34524198643874
H            -3.21287018026123     2.12854676730980     3.00028686255442
C            -4.76724334825667     1.96776684030481     4.46595195904893
H            -4.45256141199394     2.85460529456545     4.99677696145481
C            -5.87375461897034     1.25659327272130     4.91582953618804
C            -6.26695351659403     0.12880180299607     4.20564171135535
H            -7.12572830861173     -0.43669656420712     4.53808852505861
C            -5.57197170096957     -0.28672955003873     3.08650117177898
H            -5.88423774512394     -1.17329504334642     2.55559533845628
C            -6.64092822383621     1.70873531771563     6.12054847867315
H            -7.08898080572142     0.86155217227702     6.63478703273395
H            -7.44389419994174     2.38327442039710     5.82069159992003
H            -5.99503458864484     2.24220750175551     6.81384033370535

B 1 2 F
B 1 3 F
B 2 3 F

C P O N H 0
6-31G**
******
Ir 0
SDD
******

Ir 0
SDD

--Link1--
%nprocshared=12
%mem=24GB
%oldchk=TS-1olefin-disso
# opt(ts,readfc,nofreeze,noeigentest) guess=read geom=allchk freq int=grid=ultrafine M06 gen pseudo=read

C P O N H 0
6-31G**
******
Ir 0
SDD
******

Ir 0
SDD


