%nprocshared=12
%mem=24GB
%chk=TS-BHT-1-2
# opt=(modredundant) int=grid=ultrafine M06 gen pseudo=read

Title

-1 1
Ir            -0.01029999999999     -0.12270000000003     -0.41600000000004
C            0.01179999999995     -0.03450000000001     -2.61920000000014
C            -0.28320000000046     -1.41749999999952     -2.36560000000006
H            -1.34689999999961     -1.66200000000006     -2.41570000000001
C            0.55789999999980     -2.51270000000019     -2.99189999999969
C            0.23590000000031     -3.93199999999943     -2.53910000000057
H            1.62099999999982     -2.29000000000002     -2.85739999999993
H            0.37860000000011     -2.43799999999995     -4.07759999999976
H            1.07689999999997     -4.59960000000002     -2.78100000000004
H            0.14310000000001     -3.95750000000004     -1.43980000000039
H            -0.09139999999998     -1.84430000000000     -0.87200000000001
H            -0.02800000000000     1.48720000000000     -0.22769999999997
H            0.98120000000049     0.19450000000003     -3.06679999999980
H            -0.79029999999993     0.59319999999979     -3.00620000000011
C            -1.03339999999995     -4.49669999999985     -3.16719999999922
H            -1.86109999999983     -3.78099999999975     -3.04679999999999
H            -0.88159999999996     -4.59499999999994     -4.25279999999991
C            -1.43050000000014     -5.83580000000016     -2.57039999999874
H            -2.32120000000021     -6.25390000000014     -3.05160000000029
H            -0.62050000000017     -6.56910000000036     -2.67320000000009
H            -1.64559999999995     -5.73680000000003     -1.49819999999984
P            2.11429999999991     0.00000000000000     0.00000000000010
O            2.27239550128965     -0.07335749558807     1.63760170042045
N            -2.11430000000006     -0.00000000000002     0.00000000000006
N            -3.73049032678139     0.41662164402901     1.48848024716758
C            3.39425567831131     -1.20945107916828     -0.47171917667116
C            4.05110585364607     -1.03690423905184     -1.68542980715919
H            3.83389251309756     -0.16022691791559     -2.28208730464337
C            4.98136281004246     -1.96606620579334     -2.11015022150593
H            5.49838244751590     -1.82444048007429     -3.04848750681849
C            5.25420342676246     -3.07775429277020     -1.32775962496834
H            5.98772037056115     -3.79987152618441     -1.65560222093735
C            4.58706503545238     -3.26296247439674     -0.12796809995343
H            4.79856008059975     -4.13249396630651     0.47779942786026
C            3.65017507855927     -2.33708001259993     0.29570448149081
H            3.12173200270033     -2.47217503496817     1.22854531925485
C            3.07360767800984     1.53720203809846     -0.30556458587333
C            2.63880231593224     2.49745503912521     -1.20654208827640
H            1.72017094916547     2.32993175822166     -1.74834065413491
C            3.36739506309110     3.66070277349866     -1.38611831337761
H            3.02474576013309     4.40874514961373     -2.08672341503897
C            4.52864262822879     3.87102329923715     -0.66180196365252
H            5.09063347319537     4.78437283223712     -0.79432079456338
C            4.96773241602137     2.91180383153167     0.23731958444846
H            5.87291528590085     3.07741814777718     0.80388661616696
C            4.24654106442174     1.74534322995518     0.41161626041406
H            4.57798273402250     0.99109859547849     1.11179174274410
C            -0.09170000000063     0.00000000000011     1.60619999999968
C            1.08856323812472     0.03636053204623     2.34928170155341
C            1.05372671819807     0.15363409616430     3.72092376796373
H            1.96521148501760     0.16283852654206     4.29939884218319
C            -0.19071688048219     0.25129548096378     4.35007569176140
H            -0.22380104678541     0.32207371347613     5.42723247781582
C            -1.36982326620612     0.27332465512786     3.63544384470843
H            -2.30806689091995     0.35317025690953     4.16215966423061
C            -1.32945932113276     0.17302353434789     2.23897178939033
C            -2.40453524152529     0.20789140399944     1.27082495039668
C            -4.40458841459744     0.49775194085524     0.20356449036475
H            -4.60353212647382     1.54995536434108     -0.04307162294828
H            -5.35469486770060     -0.03539943070255     0.21556210137413
C            -3.36898244080762     -0.12891569714625     -0.73890657131315
H            -3.30002063484350     0.41286508016511     -1.68757288019988
C            -3.69858923645239     -1.61254006830949     -1.04856468968063
H            -2.84068324145946     -2.02978929362761     -1.57711220539892
C            -3.88885233027663     -2.46092142542983     0.20583823822948
H            -3.04593890859374     -2.33750786299671     0.88256147047946
H            -3.95170994633068     -3.51190617549093     -0.07111955352059
H            -4.80271698192168     -2.20100017857953     0.73382303233351
C            -4.90496973687911     -1.72023127827651     -1.97855918937493
H            -5.07179602955074     -2.76077629288457     -2.24973313578654
H            -4.73919933114379     -1.15148066994759     -2.89139162229050
H            -5.81010563475224     -1.34730486824150     -1.50433381566741
C            -4.43028429570838     0.71177060935687     2.66959177770368
C            -4.11557960471547     1.81909958830527     3.45135775849199
H            -3.29509658039336     2.45748294787577     3.15971654905171
C            -4.84401281644307     2.08679742069588     4.59513884351392
H            -4.58720646934017     2.94529810922699     5.19872038053354
C            -5.90546628579644     1.27502466675477     4.97985074062689
C            -6.22378123301504     0.18243367250615     4.18355805480537
H            -7.04448452530093     -0.46244151351497     4.46384457108345
C            -5.49899667980736     -0.09778786131041     3.04206887486619
H            -5.75300372417550     -0.96098955348469     2.44518914005669
C            -6.70313238475846     1.58327220739241     6.20957405377162
H            -7.20241814760632     0.69129666428194     6.58111899381118
H            -7.46659624920825     2.32826053030191     5.98202047687083
H            -6.06626645127363     1.98512273680738     6.99439715108073

B 1 2 F
B 2 3 F
B 3 11 F
B 11 1 F

C P O N H 0
6-31G**
******
Ir 0
SDD
******

Ir 0
SDD

--Link1--
%nprocshared=12
%mem=24GB
%oldchk=TS-BHT-1-2
# opt(ts,readfc,nofreeze,noeigentest) guess=read geom=allchk freq int=grid=ultrafine M06 gen pseudo=read

C P O N H 0
6-31G**
******
Ir 0
SDD
******

Ir 0
SDD


