%nprocshared=12
%mem=24GB
# opt int=grid=ultrafine M06 gen pseudo=read

Title

-1 1
Ir            0.00000000000000     0.04880000000002     -0.30829999999995
Cl            -6.28447272083625     0.63648950621227     3.40070979519666
S            1.66219999999992     -0.00000000000001     0.00000000000018
O            -1.66220000000015     -0.00000000000000     0.00000000000008
N            -0.13889999999994     -0.00000000000014     2.25810000000003
N            -1.26377787316193     0.32086350921266     2.80588678242927
C            -2.65436875568867     0.14693217091127     0.79951023295357
C            -3.92817036971168     0.36824473448995     0.24299371926511
H            -3.99058851785695     0.37315332507981     -0.83701821933962
C            -5.03388430233125     0.51468246985438     1.02750158360274
H            -6.00916393855149     0.64305474112358     0.58694271179095
C            -4.86814690044535     0.47941800964175     2.41972764517399
C            -3.63871500876052     0.33813737123333     3.00786776321007
H            -3.54974430813625     0.33127042159335     4.08141061314031
C            -2.46076340552249     0.18917771847482     2.23621422270495
C            1.05617140375548     0.43304540309426     2.68170297448579
C            1.31632527808464     0.69553886466815     4.03470431358658
H            0.49381887997362     0.58862929088812     4.72749864915769
C            2.57295460394410     1.07667515347498     4.42631682665759
H            2.76089074732256     1.31387474599379     5.46322647971204
C            3.59476424022763     1.15769825423262     3.48204003066755
H            4.58097194530931     1.45694593151678     3.80140485107371
C            3.35624528802978     0.86766333169945     2.14894959001295
H            4.15890097293988     0.92913069196399     1.43254373946607
C            2.07990304834545     0.53904452484203     1.71105971690907
C            0.58568947749186     -0.46877139489384     -2.29912519631907
H            -0.31677660498567     -0.87568768245391     -2.75918143770089
H            0.87124554830132     0.43703541940241     -2.83937969539231
C            1.71191201035773     -1.48959757889761     -2.44457369056907
H            1.86641715976736     -1.72984348764578     -3.49615167129062
H            1.48488113450895     -2.41134315008416     -1.91454776470648
H            2.65053771017940     -1.09827295819344     -2.05545356644233

C Cl O N S H 0
6-31G**
******
Ir 0
SDD
******

Ir 0
SDD


