%nprocshared=12
%mem=24GB
%chk=TS-1olefin-disso
# opt=(modredundant) int=grid=ultrafine M06 gen pseudo=read

Title

-1 1
Ir            0.00410000000000     0.04829999999998     -0.28680000000000
C            0.06270000000000     0.01699999999993     -3.06349999999999
C            0.55670000000001     1.18339999999995     -3.49690000000000
H            1.48990000000001     1.17600000000001     -4.07080000000000
H            -0.90840000000000     -0.03550000000000     -2.56210000000000
C            -0.10320000000000     2.51169999999999     -3.35430000000002
H            -0.90410000000000     2.44550000000000     -2.60790000000000
H            0.61709999999999     3.25070000000000     -2.96909999999999
C            -0.68210000000002     3.01369999999999     -4.67560000000000
H            -1.38719999999999     2.26210000000000     -5.06650000000000
H            0.11499999999999     3.10220000000001     -5.43140000000001
C            -1.39620000000002     4.34739999999999     -4.51780000000000
H            -0.68960000000001     5.09180000000000     -4.12069999999999
H            -2.17999999999997     4.24060000000001     -3.75079999999999
H            0.06590000000004     -1.62660000000001     -0.48650000000000
H            -0.04209999999999     1.73080000000000     -0.10380000000000
C            -2.00210000000004     4.84480000000000     -5.81889999999997
H            -2.51550000000001     5.80370000000000     -5.69190000000000
H            -1.22990000000000     4.98000000000001     -6.58660000000000
H            -2.73149999999998     4.12619999999998     -6.21320000000001
H            0.55460000000000     -0.92890000000000     -3.27400000000000
Cl            -5.28248932023288     -3.29899940917754     3.22541024846636
S            1.66220000000001     -0.00000000000002     0.00000000000003
O            -1.66219999999997     0.00000000000008     0.00000000000010
N            -0.13889999999999     -0.00000000000004     2.25809999999996
N            -1.03479047814932     -0.73791203645690     2.75963730185394
C            -2.46463023786066     -0.65351805275208     0.78751273553964
C            -3.61486041362852     -1.26688699785645     0.23238929120943
H            -3.80084353182765     -1.09529407506318     -0.81839456058449
C            -4.46869414142682     -2.04934912920402     0.96165846792466
H            -5.32725409134347     -2.50542008662207     0.49598892353424
C            -4.21690097860613     -2.27837548391534     2.32177735988565
C            -3.11978520928831     -1.73370721262870     2.92102203494860
H            -2.88574180462750     -1.92218720158474     3.95676172409319
C            -2.21346725404135     -0.94075021568122     2.18435442988052
C            1.15190516799731     -0.05022840640779     2.67590128045554
C            1.59077281351831     0.10729220149673     3.99875341166191
H            0.85106826884235     0.23337299864294     4.77393993385708
C            2.93510327295192     0.09778888559723     4.29180581202759
H            3.25631787829581     0.20872451730331     5.31652231521394
C            3.89399960920181     -0.05680279216628     3.28918813593736
H            4.94504729975341     -0.05095123918176     3.53373932660303
C            3.48792152528912     -0.19341828598799     1.98360576468656
H            4.19241862359936     -0.28309903154449     1.17131985768515
C            2.13069701492584     -0.19389035737096     1.67633040023872
C            0.08921554172525     -2.75133347350407     -0.44329102544060
H            -0.87610029207049     -3.10764814412072     -0.08714674148728
H            0.85360175721642     -3.02953253632915     0.28143073979982
C            0.41852996420687     -3.31917567096237     -1.81256979086179
H            1.36860950711276     -2.92726790498100     -2.17106888723591
H            -0.35731170984876     -3.07207761488115     -2.53416815690129
H            0.49775153113591     -4.40325611287676     -1.76140303784517

B 1 2 F
B 1 3 F
B 2 3 F

C Cl O N S H 0
6-31G**
******
Ir 0
SDD
******

Ir 0
SDD

--Link1--
%nprocshared=12
%mem=24GB
%oldchk=TS-1olefin-disso
# opt(ts,readfc,nofreeze,noeigentest) guess=read geom=allchk freq int=grid=ultrafine M06 gen pseudo=read

C Cl O N S H 0
6-31G**
******
Ir 0
SDD
******

Ir 0
SDD


