%nprocshared=12
%mem=24GB
# opt int=grid=ultrafine M06 gen pseudo=read

Title

-1 1
Ir            0.00000000000000     -0.00010000000000     -0.30910000000000
H            -0.02640000000000     0.73460000000000     -1.74220000000000
H            0.02630000000000     -0.73490000000000     -1.74210000000000
S            2.20210000000000     -0.00000000000000     0.00000000000000
S            3.92140186453516     0.01269958710113     2.50193094173270
S            -2.20210000000000     -0.00000000000000     0.00000000000000
S            -3.64597472885194     1.15421070194380     2.38945765602735
N            1.33265432551343     -0.14977482355668     2.52259996690686
N            -1.06643900617247     0.72396868533624     2.33285949654297
B            0.07470000000000     0.00000000000000     1.80300000000000
C            2.38864256712763     -0.02907725575313     1.67251999966352
C            3.09731523214475     -0.31641881060823     4.02031184646671
C            3.65967771639890     -0.51036069785624     5.26748990736495
H            4.72825040595322     -0.45482535253097     5.39703957461132
C            2.81728344000821     -0.78506068189560     6.33166428822204
H            3.23574362771607     -0.93711617221417     7.31405277205888
C            1.44386349786945     -0.88055122796384     6.14491322032806
H            0.80579457841345     -1.11064807065416     6.98415503759508
C            0.87660535285897     -0.68668317864190     4.89960231964597
H            -0.18867751024462     -0.77461009257777     4.75534518319837
C            1.70931931530716     -0.37967294912795     3.82913100793165
C            -2.21523416565034     0.57981667484283     1.57100411875178
C            -2.64095406145803     1.79178569215319     3.68491909044534
C            -3.05103723232447     2.56433112129824     4.75353732563888
H            -4.09729663010321     2.78042287841072     4.89738846790256
C            -2.08580390043784     3.06812553071382     5.61029961799545
H            -2.38319855954307     3.68056632789079     6.44682343529274
C            -0.74139284140750     2.82108446146974     5.37688175469980
H            0.00461139330788     3.25420383524080     6.02525767059502
C            -0.33112678027863     2.03819641725710     4.31203402299598
H            0.71917429055664     1.89215010753082     4.12378934628131
C            -1.29000220331690     1.48376571645218     3.47349323322062

C B N S H 0
6-31G**
******
Ir 0
SDD
******

Ir 0
SDD


