%nprocshared=12
%mem=24GB
%chk=TS-1olefin-disso
# opt=(modredundant) int=grid=ultrafine M06 gen pseudo=read

Title

-1 1
Ir            -0.00410000000000     -0.00800000000000     -0.29060000000000
C            -0.06270000000000     0.40950000000000     -3.03610000000000
C            -0.55670000000000     -0.68530000000000     -3.62760000000000
H            -1.48990000000000     -0.59790000000000     -4.19480000000000
H            0.90840000000000     0.39160000000000     -2.53220000000000
C            0.10320000000000     -2.02020000000000     -3.67120000000000
H            0.90410000000000     -2.05870000000000     -2.92280000000000
H            -0.61710000000000     -2.80580000000000     -3.39270000000000
C            0.68210000000000     -2.33360000000000     -5.04960000000000
H            1.38720000000000     -1.53490000000000     -5.33200000000000
H            -0.11500000000000     -2.31610000000000     -5.81040000000000
C            1.39620000000000     -3.67630000000000     -5.07900000000000
H            0.68960000000000     -4.46880000000000     -4.78920000000000
H            2.18000000000000     -3.67720000000000     -4.30460000000000
H            -0.06590000000000     1.67850000000000     -0.25540000000000
H            0.04210000000000     -1.69950000000000     -0.34360000000000
C            2.00210000000000     -3.98780000000000     -6.43650000000000
H            2.51550000000000     -4.95510000000000     -6.44430000000000
H            1.22990000000000     -4.01480000000000     -7.21560000000000
H            2.73150000000000     -3.22130000000000     -6.72700000000000
H            -0.55460000000000     1.37560000000000     -3.11280000000000
S            2.20210000000000     0.00000000000000     0.00000000000000
S            3.94246297121910     -0.25011773081659     2.44965698966365
S            -2.20210000000000     -0.00000000000000     -0.00000000000000
S            -3.68830572807483     1.00988157234186     2.44473710406337
N            1.33491330978918     -0.19871704070023     2.48743320125919
N            -1.12691732014096     0.58029889196087     2.37524757785420
B            0.07470000000000     -0.00000000000000     1.80300000000000
C            2.40854122156829     -0.15677099833384     1.63905109901118
C            3.10400782281632     -0.43242443195289     3.98096127267489
C            3.67342943151690     -0.58838268864233     5.23063668589443
H            4.74565616840628     -0.58437316437396     5.34035194240941
C            2.83360410559113     -0.74996653244471     6.31922559724318
H            3.25717207520529     -0.86267787558034     7.30459408478427
C            1.45612805029255     -0.78638810882628     6.14807047090050
H            0.81662201794569     -0.93873132388392     7.00317360510349
C            0.88372068349601     -0.63112662716403     4.89791853023727
H            -0.18486580417004     -0.67744769204397     4.76935271419675
C            1.71278942762397     -0.41649779851063     3.80347435940768
C            -2.26213693779236     0.45813400596098     1.60882465993204
C            -2.67443805506565     1.70809956925932     3.70114982985581
C            -3.06224251462135     2.54170561479657     4.73373102481386
H            -4.10475914180750     2.76696695544999     4.88755471715377
C            -2.07977616772774     3.10467222296398     5.53161789976316
H            -2.35997957314885     3.77013140837721     6.33310394984347
C            -0.73801969986613     2.85745231044348     5.27753857349446
H            0.01992050767093     3.34348639975653     5.87236825315243
C            -0.34903204956375     2.01331206433402     4.25308694018603
H            0.69478777919556     1.87154903751338     4.03271898923214
C            -1.32564921007493     1.39898915131126     3.47865479531626

B 1 2 F
B 1 3 F
B 2 3 F

C B N S H 0
6-31G**
******
Ir 0
SDD
******

Ir 0
SDD

--Link1--
%nprocshared=12
%mem=24GB
%oldchk=TS-1olefin-disso
# opt(ts,readfc,nofreeze,noeigentest) guess=read geom=allchk freq int=grid=ultrafine M06 gen pseudo=read

C B N S H 0
6-31G**
******
Ir 0
SDD
******

Ir 0
SDD


