%nprocshared=12
%mem=24GB
%chk=TS-CH-Add-1-2
# opt=(modredundant) int=grid=ultrafine M06 gen pseudo=read

Title

-1 1
Ir            -0.00040000000000     0.10810000000000     -0.34670000000000
C            0.06130000000000     0.31670000000000     -2.63970000000000
C            -0.34020000000000     -1.00750000000000     -3.28000000000000
H            -1.35050000000000     -1.28060000000000     -2.95440000000000
C            -0.31100000000000     -0.94090000000000     -4.80530000000000
C            -0.66810000000000     -2.25270000000000     -5.49310000000000
H            0.68700000000000     -0.60960000000000     -5.13360000000000
H            -1.01360000000000     -0.15630000000000     -5.13610000000000
H            -0.61210000000000     -2.11770000000000     -6.58480000000000
H            0.08610000000000     -3.01830000000000     -5.24680000000000
H            0.31270000000000     -1.83000000000000     -2.94360000000000
H            -0.01570000000000     1.30660000000000     -1.36560000000000
H            1.07160000000000     0.59120000000000     -2.97560000000000
H            -0.59140000000000     1.08330000000000     -3.09580000000000
C            -2.04980000000000     -2.78670000000000     -5.13360000000000
H            -2.06280000000000     -3.10020000000000     -4.07930000000000
H            -2.78680000000000     -1.96960000000000     -5.21300000000000
C            -2.46590000000000     -3.95380000000000     -6.01320000000000
H            -3.44770000000000     -4.35190000000000     -5.73440000000000
H            -2.51370000000000     -3.65550000000000     -7.06820000000000
H            -1.74160000000000     -4.77530000000000     -5.94040000000000
S            2.20210000000000     -0.00000000000000     0.00000000000000
S            3.93760334215726     -0.14756453745076     2.47098741763101
S            -2.20210000000000     0.00000000000000     -0.00000000000000
S            -3.67687645036481     1.03229808783675     2.44523160376897
N            1.33743648762902     -0.14400528940201     2.51417018787555
N            -1.09925236761939     0.66669323957911     2.35458052583643
B            0.07470000000000     -0.00000000000000     1.80300000000000
C            2.39672405424510     -0.08479526039661     1.66184859457216
C            3.10802914553850     -0.38188777402127     4.00015930969026
C            3.67585824143741     -0.56763693382424     5.24599617970787
H            4.74786908648266     -0.56264188223710     5.36015749561722
C            2.83454790429454     -0.76244874653804     6.32816332147664
H            3.25679262145496     -0.90052499171408     7.31111005657171
C            1.45658765457602     -0.79635430067967     6.15616942222522
H            0.81692456850206     -0.96924280948988     7.00792986666426
C            0.88517564566126     -0.61209931435170     4.91071925820151
H            -0.18399326520660     -0.65520028196464     4.78081964265714
C            1.71615501137410     -0.37231873607542     3.82193530308912
C            -2.24526561127545     0.49789686039635     1.60554409435982
C            -2.66970919430215     1.73443549007593     3.70485760312939
C            -3.07293164336461     2.54080025893783     4.75150816243687
H            -4.11950458149935     2.74473727256685     4.90981103451737
C            -2.10009017658521     3.09947535097580     5.56486183915869
H            -2.39222844687900     3.74169585813410     6.38085805945810
C            -0.75486394028332     2.87202782253284     5.31199542471228
H            -0.00553329244426     3.34934110168930     5.92478158628155
C            -0.35099040173643     2.05670673463544     4.27024176414314
H            0.69613885039401     1.92752194746629     4.05614327741202
C            -1.31623100721234     1.44918371035563     3.47536119437939

B 1 12 F
B 1 2 F
B 2 12 F

C B N S H 0
6-31G**
******
Ir 0
SDD
******

Ir 0
SDD

--Link1--
%nprocshared=12
%mem=24GB
%oldchk=TS-CH-Add-1-2
# opt(ts,readfc,nofreeze,noeigentest) guess=read geom=allchk freq int=grid=ultrafine M06 gen pseudo=read

C B N S H 0
6-31G**
******
Ir 0
SDD
******

Ir 0
SDD


