%nprocshared=12
%mem=24GB
# opt int=grid=ultrafine M06 gen pseudo=read

Title

-1 1
Ir            0.00609999999998     -0.03989999999999     -0.35490000000000
C            0.05869999999999     0.31170000000001     -2.53019999999998
C            -0.56839999999994     -0.60590000000001     -3.57980000000000
H            -0.55740000000001     -0.09389999999998     -4.55880000000000
C            0.11169999999998     -1.95669999999998     -3.74730000000000
C            -0.53709999999992     -2.86500000000000     -4.78520000000000
H            0.11470000000001     -2.47689999999999     -2.77490000000000
H            1.17450000000002     -1.80309999999999     -4.00750000000001
H            -0.06039999999998     -3.85750000000004     -4.75080000000001
H            -1.59390000000003     -3.03160000000001     -4.51289999999998
H            -1.63220000000004     -0.79370000000001     -3.36100000000000
H            0.00490000000000     -1.41500000000000     -1.06210000000000
H            1.10520000000003     0.46700000000004     -2.83880000000001
H            -0.41149999999999     1.30760000000001     -2.63100000000001
C            -0.46969999999992     -2.34559999999985     -6.21560000000002
H            -1.02540000000001     -1.40079999999989     -6.29680000000000
H            0.57609999999993     -2.10149999999999     -6.46040000000000
C            -1.01839999999997     -3.34659999999997     -7.21879999999999
H            -0.97749999999997     -2.96710000000000     -8.24570000000000
H            -0.45260000000004     -4.28670000000001     -7.18800000000000
H            -2.06529999999968     -3.59079999999998     -6.99640000000004
Si            0.01763975821123     0.07856716168927     6.26682970095818
F            2.52635058974853     -3.43028286605490     8.07895195838104
F            0.50880737631829     -4.20020554685244     8.19243387745771
F            2.47124809584169     -2.56469232463440     10.60249239961520
F            0.36152244391140     -2.97788146991119     10.81404624486304
F            2.63351808042403     -5.44790969095471     9.79868182160089
F            0.63092813407365     -5.54253993451274     10.60838906422950
F            3.68518056860725     -4.55508837409555     12.01099265789058
F            1.78046795453776     -4.02135082824249     12.88312650982212
F            2.50438450396521     -7.28091025037535     11.81448766406139
F            1.00443635448598     -6.48875000688747     13.16000382315143
F            4.48711103336972     -6.67410508066337     13.48339043345132
F            3.21928993575273     -5.46554904477217     14.73463544032214
F            2.90527878775630     -7.58726826951438     14.61387155772254
N            1.98449999999999     -0.00000000000002     -0.00000000000004
N            -1.98449999999996     -0.00000000000006     0.00000000000004
C            -0.00060000000004     -0.00000000000001     1.60640000000001
C            1.17829419065596     -0.21422112315041     2.30516001426114
C            1.19055209106263     -0.14372479746086     3.68283250021037
C            0.00740082319027     0.13588907562475     4.38141001828165
C            -1.16310477700583     0.41222088323371     3.66409333405445
C            -1.15480324149847     0.35401645991810     2.28434964904455
C            2.30487783857961     -0.54112675130905     1.36492075285933
C            2.25130064509589     1.44781115940376     0.02870314995256
C            2.94984491303926     -0.61360702402876     -0.92645827047559
C            -2.25431858667095     0.68536550450204     1.31382295437598
C            -2.53570378419189     -1.36474127867149     0.13296502390749
C            -2.81683242187600     0.69379072042406     -0.99858498637625
C            1.19357885511783     1.38900931273623     7.00926273849399
C            -1.72305004681273     0.29530739052817     7.01215133850517
C            0.67150941242703     -1.66015957458932     6.76902680777606
C            0.77412165049648     -1.83119954728061     8.27754280189051
C            1.31361896554576     -3.20758881026994     8.64093753190290
C            1.48387159001707     -3.38071406684088     10.18262848164825
C            1.77829618696218     -4.84379334314462     10.63649508755238
C            2.38888347175825     -4.90367349301427     12.07444885648244
C            2.26072902982006     -6.31888855950086     12.71792579083861
C            3.24347189220428     -6.51089701964613     13.91616853741347
H            2.10331498128534     -0.32141202520455     4.23758194868405
H            -2.06784324371960     0.66269267199996     4.20191337089493
H            2.38329915003853     -1.62817134402561     1.27378189416351
H            3.27492585822277     -0.15171530859677     1.70099839797029
H            2.00325074314759     1.89101906645243     -0.93597240742639
H            3.30891399421021     1.65011372520841     0.23988818728900
H            1.65527721949293     1.92159318215559     0.80892336148290
H            2.75590828330597     -1.68135714465129     -0.99481517075304
H            3.97941396117046     -0.45175914508897     -0.58796380577788
H            2.83380973253298     -0.18436826333106     -1.91802715121661
H            -2.24872689552550     1.76835047597086     1.14082380722438
H            -3.25490786396596     0.41617405835821     1.67607393573455
H            -3.60509967136901     -1.32629757513775     0.36987999896174
H            -2.01260862591116     -1.88871580073081     0.92924705791153
H            -2.39663006258252     -1.90922546692715     -0.79774953626337
H            -2.74559419529862     0.17729927810563     -1.95183805266109
H            -2.46628200639784     1.71567515013803     -1.13500709916107
H            -3.86783849580514     0.72314000672582     -0.68780316118728
H            1.12959225766446     1.41576192116809     8.09320397527616
H            0.95307573821419     2.38311586488656     6.64523590221665
H            2.22712358750177     1.18737670685955     6.74428429797057
H            -2.39614383499966     -0.49157292063615     6.68583981789797
H            -2.15999564405143     1.24521565693693     6.72180668271587
H            -1.69226273873945     0.27443149521284     8.09744174573978
H            0.01707564466137     -2.43347164836520     6.36770737562242
H            1.65376333480253     -1.82391651322167     6.32796287267309
H            1.45278760699713     -1.09174250416665     8.70460086589122
H            -0.20589209958926     -1.72756639953689     8.74403485427652

C F Si N H 0
6-31G**
******
Ir 0
SDD
******

Ir 0
SDD

