%nprocshared=12
%mem=24GB
%chk=TS-BHT-1-2
# opt=(modredundant) int=grid=ultrafine M06 gen pseudo=read

Title

-1 1
Ir            -0.01030000000003     -0.12269999999999     -0.41600000000001
C            0.01179999999997     -0.03449999999998     -2.61920000000003
C            -0.28319999999988     -1.41749999999998     -2.36560000000001
H            -1.34690000000004     -1.66200000000001     -2.41570000000001
C            0.55790000000005     -2.51269999999994     -2.99189999999999
C            0.23590000000026     -3.93200000000009     -2.53910000000001
H            1.62099999999986     -2.28999999999998     -2.85739999999999
H            0.37860000000007     -2.43800000000001     -4.07759999999998
H            1.07690000000002     -4.59959999999996     -2.78100000000000
H            0.14310000000004     -3.95750000000002     -1.43980000000001
H            -0.09139999999999     -1.84430000000002     -0.87200000000000
H            -0.02800000000000     1.48719999999998     -0.22770000000002
H            0.98119999999988     0.19449999999994     -3.06680000000003
H            -0.79029999999993     0.59320000000000     -3.00620000000002
C            -1.03340000000017     -4.49669999999996     -3.16719999999994
H            -1.86109999999991     -3.78099999999998     -3.04680000000002
H            -0.88159999999994     -4.59500000000005     -4.25280000000005
C            -1.43049999999995     -5.83580000000011     -2.57040000000015
H            -2.32119999999967     -6.25389999999987     -3.05160000000004
H            -0.62049999999979     -6.56910000000001     -2.67319999999994
H            -1.64559999999989     -5.73680000000002     -1.49819999999998
Si            0.00110873940406     0.17134831543175     6.25403980064707
F            2.62082063154957     -3.18781330675059     8.15491028278245
F            0.68157897325702     -4.13981150885638     8.05342277388799
F            2.26357033316654     -2.47213325066948     10.70919024829456
F            0.20070614125374     -3.11201841242527     10.70796410438461
F            2.78344736700803     -5.27546540814341     9.74392126528055
F            0.75302153112748     -5.61345813945870     10.40546528333315
F            3.58502907170920     -4.39774970348381     12.07602622864523
F            1.57648794914710     -4.15523183256512     12.83904099666370
F            2.74252195899109     -7.22557601390100     11.61519063201600
F            1.09490158784126     -6.70437671210206     12.91884330007410
F            4.55544711141043     -6.51407879291110     13.43181719694621
F            3.09038895310415     -5.55666665359577     14.68575533501566
F            3.03979628145250     -7.68593545146389     14.40318901250147
N            1.98449999999992     0.00000000000003     0.00000000000002
N            -1.98449999999992     -0.00000000000014     -0.00000000000004
C            -0.00059999999995     -0.00000000000000     1.60640000000002
C            1.17621579926224     -0.23015097871390     2.30299543759976
C            1.18624783791086     -0.12989186671181     3.67814143900984
C            0.01029000056341     0.19825463725930     4.36909713867398
C            -1.15089596536429     0.49773439295437     3.64304328386952
C            -1.14895859099100     0.41281582660155     2.26661583419707
C            2.26696816543920     -0.62320653302521     1.34777578292529
C            2.49607287118741     1.38613810255729     0.09256640405631
C            2.88749403086280     -0.68787462660262     -0.94312208884977
C            -2.22119038933707     0.76720970388120     1.27731794478482
C            -2.56454879078729     -1.33707152507868     0.26029595373673
C            -2.84098056389922     0.63455697663890     -1.01961476419796
C            1.10488844053846     1.53036883676455     7.01791669767563
C            -1.76074200483611     0.31654209665195     6.96867124483569
C            0.71991936882554     -1.53911650791766     6.76859909318595
C            0.71860946247549     -1.76485995188807     8.27355741776037
C            1.34999482986419     -3.10604330611835     8.61918326945052
C            1.40821206418987     -3.35619292450400     10.15815547438833
C            1.81962370160628     -4.80911261667989     10.55182537470935
C            2.33941155917850     -4.89953548914585     12.02273294391068
C            2.34382640729442     -6.36312734961765     12.56331801148448
C            3.28092941880900     -6.52867318255013     13.80120986675300
H            2.09162430809170     -0.32485558314560     4.23744306277214
H            -2.04624909075575     0.78732618296192     4.17504079176788
H            2.24397118308606     -1.71098184877041     1.22381079541249
H            3.26937353809397     -0.33539761516946     1.68588561045108
H            2.30289645063628     1.91449258622234     -0.83686342585298
H            3.57419113187510     1.37997082139277     0.28866293406821
H            1.99141033680283     1.90648072633694     0.90166912840671
H            2.60979325439637     -1.73753268093023     -1.02080964727211
H            3.93155462129123     -0.63057570947734     -0.61098966708937
H            2.81513698161109     -0.22302565472021     -1.92478332156104
H            -2.12742691414544     1.83166622281973     1.04403823935417
H            -3.23861805447706     0.57712010312549     1.63929364355636
H            -3.62887548641929     -1.25832922244743     0.51174409668772
H            -2.04201034132007     -1.79834381671287     1.09553984423549
H            -2.47006572771569     -1.97978518996083     -0.61174394375136
H            -2.84185071870189     0.04144354515158     -1.93243454810819
H            -2.45409539372972     1.62505002099621     -1.24833992904252
H            -3.87465214335183     0.72610991988684     -0.66614846826320
H            1.03585157241070     1.54326335948405     8.10193919041423
H            0.81347435745708     2.51336249750744     6.66152850698094
H            2.14820711439542     1.38594174591045     6.75448437386087
H            -2.39921680081524     -0.49025269563122     6.62223430041224
H            -2.22386910984233     1.25271747371100     6.67487694112367
H            -1.75243502338248     0.28945817110398     8.05421169399827
H            0.15128456424740     -2.33662037117725     6.29133614325842
H            1.74225989438028     -1.62434888280925     6.40325898778444
H            1.29540556604082     -0.99124463025844     8.78184486476540
H            -0.29962137994069     -1.76565533693407     8.66301252993014

B 1 2 F
B 2 3 F
B 3 11 F
B 11 1 F

C F Si N H 0
6-31G**
******
Ir 0
SDD
******

Ir 0
SDD

--Link1--
%nprocshared=12
%mem=24GB
%oldchk=TS-BHT-1-2
# opt(ts,readfc,nofreeze,noeigentest) guess=read geom=allchk freq int=grid=ultrafine M06 gen pseudo=read

C F Si N H 0
6-31G**
******
Ir 0
SDD
******

Ir 0
SDD


