%nprocshared=12
%mem=24GB
%chk=TS-CH-Add-1-2
# opt=(modredundant) int=grid=ultrafine M06 gen pseudo=read

Title

-1 1
Ir            -0.00039999999999     0.10810000000000     -0.34670000000000
C            0.06130000000002     0.31669999999999     -2.63970000000000
C            -0.34019999999999     -1.00749999999999     -3.28000000000000
H            -1.35049999999999     -1.28059999999999     -2.95440000000000
C            -0.31100000000001     -0.94089999999999     -4.80530000000000
C            -0.66810000000003     -2.25270000000001     -5.49309999999998
H            0.68700000000003     -0.60960000000002     -5.13360000000000
H            -1.01360000000001     -0.15630000000001     -5.13610000000000
H            -0.61210000000000     -2.11770000000001     -6.58480000000000
H            0.08609999999999     -3.01830000000001     -5.24680000000000
H            0.31270000000001     -1.82999999999999     -2.94360000000000
H            -0.01569999999999     1.30660000000002     -1.36560000000000
H            1.07159999999997     0.59120000000000     -2.97560000000001
H            -0.59140000000001     1.08330000000002     -3.09580000000000
C            -2.04979999999997     -2.78670000000000     -5.13360000000000
H            -2.06280000000000     -3.10020000000002     -4.07930000000000
H            -2.78679999999999     -1.96959999999996     -5.21300000000000
C            -2.46590000000010     -3.95379999999999     -6.01319999999999
H            -3.44770000000001     -4.35190000000002     -5.73440000000002
H            -2.51370000000001     -3.65550000000002     -7.06820000000000
H            -1.74159999999997     -4.77530000000000     -5.94040000000001
Si            0.02442841580955     -0.14362755833734     6.26451689914880
F            2.56598264100702     -3.56971721511614     8.19555334214336
F            0.54701609752161     -4.33047519345472     8.33830976320467
F            2.52748213063270     -2.63450985248427     10.68958195807659
F            0.41324953637986     -3.01164412493071     10.92035061703326
F            2.64324458406000     -5.54227030816890     9.96517138411604
F            0.64387800858224     -5.58372137189987     10.78782786538926
F            3.71868853909996     -4.60120315068282     12.14913415314633
F            1.82377693939328     -4.02799507696572     13.01744635175417
F            2.49652915274904     -7.31845127165202     12.01448955454476
F            1.02501102888417     -6.47624694786046     13.36059614361462
F            4.50935065732088     -6.70076293954680     13.64554354123327
F            3.26928249628446     -5.45678338575020     14.89026975716197
F            2.93148936273370     -7.57696315453093     14.81016453425225
N            1.98449999999999     0.00000000000001     -0.00000000000001
N            -1.98449999999999     0.00000000000002     0.00000000000001
C            -0.00059999999998     0.00000000000000     1.60639999999999
C            1.15903466159362     -0.33850417855794     2.28947838275714
C            1.16134263179328     -0.39442229267965     3.66650047018899
C            -0.01715682563078     -0.13213461331954     4.38208821888573
C            -1.19626976965821     0.15719135995279     3.68165277209539
C            -1.18197970158656     0.22578615708584     2.30419145179655
C            2.25772816040839     -0.67461097616236     1.32012421862938
C            2.56946036318861     1.35089501094712     0.10375232037680
C            2.76827005673490     -0.73657567241792     -1.00549982506568
C            -2.31261406109256     0.54566921327504     1.36165971091638
C            -2.24229754028403     -1.44923817203247     0.04181583837712
C            -2.93766389605463     0.59498867873539     -0.94810261307169
C            1.20893313829032     1.19559732202804     6.94073953236097
C            -1.69908489165382     0.10460488367030     7.04016426867537
C            0.69427171652231     -1.85711507292679     6.82816288845850
C            0.81777889201769     -1.96161982153838     8.34069852993605
C            1.35473921890018     -3.32425950909226     8.75191925541352
C            1.52753816557276     -3.44852187825884     10.29750931627944
C            1.80213005270506     -4.90225537258468     10.79096327927069
C            2.41916130465841     -4.93451517302869     12.22625130897940
C            2.27825657305978     -6.33414849298467     12.90053154951516
C            3.27272064158127     -6.51641460448989     14.09004330623833
H            2.06536659366521     -0.64130998326148     4.20905037528161
H            -2.10850675291580     0.33444956615984     4.23535442319124
H            2.24761138345912     -1.75739160100859     1.15379260662771
H            3.25977221670590     -0.40367393675153     1.67689313330780
H            2.41415616167930     1.89633379984066     -0.82428751396114
H            3.64634700346938     1.29588053836480     0.30652841025844
H            2.08210826412659     1.88861909695685     0.91353622511023
H            2.35046358757846     -1.73264468753921     -1.14405607429584
H            3.81702231781789     -0.83593837255165     -0.69990551376193
H            2.73624904680020     -0.21379113505591     -1.95810986061835
H            -2.39780660089798     1.63198183604378     1.26636173076737
H            -3.28070590712201     0.15203629387142     1.69967690618120
H            -3.30307842819200     -1.65249448091279     0.23772503801337
H            -1.65361105008577     -1.90482262311917     0.83594390204938
H            -1.97424814076809     -1.90709717398153     -0.90910151918869
H            -2.78556112452830     0.17082390010387     -1.93830032613586
H            -2.77170456539239     1.66885483589841     -1.00541166220738
H            -3.97497860184745     0.41071159070603     -0.64208128985691
H            1.16479022357073     1.26447048023231     8.02392015943214
H            0.95730925956220     2.17343318042238     6.54209590302656
H            2.23822094249057     0.98868990853538     6.66385729846455
H            -2.37885246164304     -0.69832835858312     6.77249282846783
H            -2.14321748652432     1.03755718318889     6.70898781538568
H            -1.64277464253219     0.14247644426322     8.12399152750496
H            0.03796711276776     -2.64983972849332     6.47045199402479
H            1.67150037157150     -2.03449030138025     6.38149632333139
H            1.50661248849051     -1.20848960064964     8.72521043564303
H            -0.15490677175192     -1.83146125649310     8.81555882914096

B 1 12 F
B 1 2 F
B 2 12 F

C F Si N H 0
6-31G**
******
Ir 0
SDD
******

Ir 0
SDD

--Link1--
%nprocshared=12
%mem=24GB
%oldchk=TS-CH-Add-1-2
# opt(ts,readfc,nofreeze,noeigentest) guess=read geom=allchk freq int=grid=ultrafine M06 gen pseudo=read

C F Si N H 0
6-31G**
******
Ir 0
SDD
******

Ir 0
SDD


